MODEL 1
REMARK VINA RESULT:    -5.246      0.000      0.000
REMARK INTER + INTRA:          -0.537
REMARK INTER:                  -5.476
REMARK INTRA:                   4.939
REMARK UNBOUND:                 7.161
REMARK  8 active torsions:
REMARK  status: ('A' for Active; 'I' for Inactive)
REMARK    1  A    between atoms: C_13  and  C_15 
REMARK    2  A    between atoms: C_14  and  C_16 
REMARK    3  A    between atoms: C_15  and  C_22 
REMARK    4  A    between atoms: C_16  and  C_23 
REMARK    5  A    between atoms: C_17  and  C_21 
REMARK    6  A    between atoms: C_18  and  C_24 
REMARK    7  A    between atoms: C_19  and  C_27 
REMARK    8  A    between atoms: C_20  and  C_30 
ROOT
HETATM    1  O   UNL     1       4.289  26.392   8.475  1.00  0.00    -0.304 OA
HETATM    2  O   UNL     1       3.274  24.766   4.028  1.00  0.00    -0.304 OA
HETATM    3  O   UNL     1      -0.104  25.856   5.988  1.00  0.00    -0.304 OA
HETATM    4  O   UNL     1       3.584  27.190   6.065  1.00  0.00    -0.270 OA
HETATM    5  O   UNL     1       3.547  24.225   8.194  1.00  0.00    -0.263 OA
HETATM    6  O   UNL     1       0.880  27.199   7.974  1.00  0.00    -0.270 OA
HETATM    7  O   UNL     1       3.796  25.218   1.832  1.00  0.00    -0.263 OA
HETATM    8  O   UNL     1       1.599  23.022   1.570  1.00  0.00    -0.270 OA
HETATM    9  O   UNL     1      -1.141  24.124   4.873  1.00  0.00    -0.263 OA
HETATM   10  N   UNL     1       5.333  26.170   4.932  1.00  0.00    -0.340 N 
HETATM   11  N   UNL     1       1.133  25.246   9.201  1.00  0.00    -0.340 N 
HETATM   12  N   UNL     1       0.398  24.700   2.628  1.00  0.00    -0.340 N 
HETATM   13  C   UNL     1       4.782  26.553   3.610  1.00  0.00     0.190 C 
HETATM   14  C   UNL     1       2.419  25.718   9.752  1.00  0.00     0.190 C 
HETATM   15  C   UNL     1       5.285  26.224   7.447  1.00  0.00     0.227 C 
HETATM   16  C   UNL     1       0.268  25.727   3.683  1.00  0.00     0.190 C 
HETATM   17  C   UNL     1      -0.475  25.356   7.290  1.00  0.00     0.227 C 
HETATM   18  C   UNL     1       2.414  23.659   3.741  1.00  0.00     0.227 C 
HETATM   19  C   UNL     1       4.653  26.569   6.093  1.00  0.00     0.250 C 
HETATM   20  C   UNL     1       3.469  25.326   8.722  1.00  0.00     0.283 C 
HETATM   21  C   UNL     1       0.548  26.029   8.196  1.00  0.00     0.250 C 
HETATM   22  C   UNL     1       3.936  25.418   3.032  1.00  0.00     0.283 C 
HETATM   23  C   UNL     1       1.449  23.773   2.541  1.00  0.00     0.250 C 
HETATM   24  C   UNL     1      -0.426  25.115   4.889  1.00  0.00     0.283 C 
HETATM   25  C   UNL     1       6.532  25.326   4.919  1.00  0.00     0.153 C 
HETATM   26  C   UNL     1       0.621  23.938   9.618  1.00  0.00     0.153 C 
HETATM   27  C   UNL     1      -0.643  24.649   1.602  1.00  0.00     0.153 C 
ENDROOT
BRANCH  15  28
HETATM   28  C   UNL     1       6.416  27.194   7.759  1.00  0.00     0.016 C 
HETATM   29  C   UNL     1       6.943  26.969   9.175  1.00  0.00     0.012 C 
HETATM   30  C   UNL     1       7.545  27.053   6.740  1.00  0.00     0.012 C 
ENDBRANCH  15  28
BRANCH  14  31
HETATM   31  C   UNL     1       2.812  25.178  11.120  1.00  0.00     0.014 C 
HETATM   32  C   UNL     1       4.329  24.982  11.181  1.00  0.00     0.012 C 
BRANCH  31  33
HETATM   33  C   UNL     1       2.359  26.099  12.266  1.00  0.00     0.002 C 
HETATM   34  C   UNL     1       1.130  25.590  13.007  1.00  0.00     0.005 C 
ENDBRANCH  31  33
ENDBRANCH  14  31
BRANCH  13  35
HETATM   35  C   UNL     1       5.848  27.018   2.620  1.00  0.00     0.014 C 
HETATM   36  C   UNL     1       7.008  26.019   2.598  1.00  0.00     0.012 C 
BRANCH  35  37
HETATM   37  C   UNL     1       5.289  27.197   1.196  1.00  0.00     0.002 C 
HETATM   38  C   UNL     1       6.210  26.663   0.109  1.00  0.00     0.005 C 
ENDBRANCH  35  37
ENDBRANCH  13  35
BRANCH  17  39
HETATM   39  C   UNL     1      -1.882  25.802   7.643  1.00  0.00     0.016 C 
HETATM   40  C   UNL     1      -1.880  26.610   8.938  1.00  0.00     0.012 C 
HETATM   41  C   UNL     1      -2.813  24.597   7.764  1.00  0.00     0.012 C 
ENDBRANCH  17  39
BRANCH  18  42
HETATM   42  C   UNL     1       3.290  22.410   3.638  1.00  0.00     0.016 C 
HETATM   43  C   UNL     1       4.178  22.268   4.875  1.00  0.00     0.012 C 
HETATM   44  C   UNL     1       2.431  21.162   3.451  1.00  0.00     0.012 C 
ENDBRANCH  18  42
BRANCH  16  45
HETATM   45  C   UNL     1      -0.453  27.005   3.257  1.00  0.00     0.010 C 
HETATM   46  C   UNL     1      -1.901  26.997   3.746  1.00  0.00     0.012 C 
HETATM   47  C   UNL     1      -0.403  27.174   1.739  1.00  0.00     0.012 C 
ENDBRANCH  16  45
TORSDOF 8
ENDMDL
MODEL 2
REMARK VINA RESULT:    -4.534      2.484      8.807
REMARK INTER + INTRA:           0.507
REMARK INTER:                  -3.138
REMARK INTRA:                   3.645
REMARK UNBOUND:                 7.161
REMARK  8 active torsions:
REMARK  status: ('A' for Active; 'I' for Inactive)
REMARK    1  A    between atoms: C_13  and  C_15 
REMARK    2  A    between atoms: C_14  and  C_16 
REMARK    3  A    between atoms: C_15  and  C_22 
REMARK    4  A    between atoms: C_16  and  C_23 
REMARK    5  A    between atoms: C_17  and  C_21 
REMARK    6  A    between atoms: C_18  and  C_24 
REMARK    7  A    between atoms: C_19  and  C_27 
REMARK    8  A    between atoms: C_20  and  C_30 
ROOT
HETATM    1  O   UNL     1      -0.602  25.958   4.789  1.00  0.00    -0.304 OA
HETATM    2  O   UNL     1      -1.552  24.464   9.296  1.00  0.00    -0.304 OA
HETATM    3  O   UNL     1       2.244  25.855   8.990  1.00  0.00    -0.304 OA
HETATM    4  O   UNL     1      -1.116  26.834   7.220  1.00  0.00    -0.270 OA
HETATM    5  O   UNL     1       0.110  23.872   5.474  1.00  0.00    -0.263 OA
HETATM    6  O   UNL     1       2.145  27.086   6.712  1.00  0.00    -0.270 OA
HETATM    7  O   UNL     1      -3.034  24.879  11.008  1.00  0.00    -0.263 OA
HETATM    8  O   UNL     1      -1.015  22.902  12.322  1.00  0.00    -0.270 OA
HETATM    9  O   UNL     1       2.812  24.235  10.532  1.00  0.00    -0.263 OA
HETATM   10  N   UNL     1      -3.097  25.662   7.506  1.00  0.00    -0.340 N 
HETATM   11  N   UNL     1       2.627  25.110   5.595  1.00  0.00    -0.340 N 
HETATM   12  N   UNL     1       0.391  24.679  11.829  1.00  0.00    -0.340 N 
HETATM   13  C   UNL     1      -3.227  26.104   8.915  1.00  0.00     0.190 C 
HETATM   14  C   UNL     1       1.689  25.456   4.509  1.00  0.00     0.190 C 
HETATM   15  C   UNL     1      -1.935  25.704   5.275  1.00  0.00     0.227 C 
HETATM   16  C   UNL     1       0.894  25.706  10.894  1.00  0.00     0.190 C 
HETATM   17  C   UNL     1       3.197  25.383   8.014  1.00  0.00     0.227 C 
HETATM   18  C   UNL     1      -0.824  23.445   9.987  1.00  0.00     0.227 C 
HETATM   19  C   UNL     1      -2.005  26.115   6.750  1.00  0.00     0.250 C 
HETATM   20  C   UNL     1       0.325  24.973   4.984  1.00  0.00     0.283 C 
HETATM   21  C   UNL     1       2.636  25.951   6.717  1.00  0.00     0.250 C 
HETATM   22  C   UNL     1      -2.640  25.057   9.862  1.00  0.00     0.283 C 
HETATM   23  C   UNL     1      -0.509  23.657  11.485  1.00  0.00     0.250 C 
HETATM   24  C   UNL     1       2.101  25.154  10.153  1.00  0.00     0.283 C 
HETATM   25  C   UNL     1      -4.102  24.709   7.025  1.00  0.00     0.153 C 
HETATM   26  C   UNL     1       3.376  23.854   5.513  1.00  0.00     0.153 C 
HETATM   27  C   UNL     1       0.865  24.732  13.212  1.00  0.00     0.153 C 
ENDROOT
BRANCH  15  28
HETATM   28  C   UNL     1      -2.883  26.561   4.446  1.00  0.00     0.016 C 
HETATM   29  C   UNL     1      -2.214  27.000   3.144  1.00  0.00     0.012 C 
HETATM   30  C   UNL     1      -4.178  25.805   4.154  1.00  0.00     0.012 C 
ENDBRANCH  15  28
BRANCH  14  31
HETATM   31  C   UNL     1       1.993  24.871   3.136  1.00  0.00     0.014 C 
HETATM   32  C   UNL     1       0.721  24.263   2.540  1.00  0.00     0.012 C 
BRANCH  31  33
HETATM   33  C   UNL     1       2.573  25.920   2.170  1.00  0.00     0.002 C 
HETATM   34  C   UNL     1       3.148  25.320   0.894  1.00  0.00     0.005 C 
ENDBRANCH  31  33
ENDBRANCH  14  31
BRANCH  13  35
HETATM   35  C   UNL     1      -4.657  26.473   9.306  1.00  0.00     0.014 C 
HETATM   36  C   UNL     1      -5.342  27.199   8.144  1.00  0.00     0.012 C 
BRANCH  35  37
HETATM   37  C   UNL     1      -5.491  25.245   9.714  1.00  0.00     0.002 C 
HETATM   38  C   UNL     1      -6.967  25.368   9.368  1.00  0.00     0.005 C 
ENDBRANCH  35  37
ENDBRANCH  13  35
BRANCH  17  39
HETATM   39  C   UNL     1       4.572  25.957   8.302  1.00  0.00     0.016 C 
HETATM   40  C   UNL     1       4.462  27.196   9.188  1.00  0.00     0.012 C 
HETATM   41  C   UNL     1       5.298  26.292   7.001  1.00  0.00     0.012 C 
ENDBRANCH  17  39
BRANCH  18  42
HETATM   42  C   UNL     1      -1.549  22.120   9.751  1.00  0.00     0.016 C 
HETATM   43  C   UNL     1      -2.229  22.113   8.382  1.00  0.00     0.012 C 
HETATM   44  C   UNL     1      -0.580  20.945   9.872  1.00  0.00     0.012 C 
ENDBRANCH  18  42
BRANCH  16  45
HETATM   45  C   UNL     1       1.242  27.049  11.534  1.00  0.00     0.010 C 
HETATM   46  C   UNL     1       2.755  27.197  11.691  1.00  0.00     0.012 C 
HETATM   47  C   UNL     1       0.548  27.200  12.887  1.00  0.00     0.012 C 
ENDBRANCH  16  45
TORSDOF 8
ENDMDL
MODEL 3
REMARK VINA RESULT:    -3.693      9.771     14.125
REMARK INTER + INTRA:           1.741
REMARK INTER:                  -2.567
REMARK INTRA:                   4.309
REMARK UNBOUND:                 7.161
REMARK  8 active torsions:
REMARK  status: ('A' for Active; 'I' for Inactive)
REMARK    1  A    between atoms: C_13  and  C_15 
REMARK    2  A    between atoms: C_14  and  C_16 
REMARK    3  A    between atoms: C_15  and  C_22 
REMARK    4  A    between atoms: C_16  and  C_23 
REMARK    5  A    between atoms: C_17  and  C_21 
REMARK    6  A    between atoms: C_18  and  C_24 
REMARK    7  A    between atoms: C_19  and  C_27 
REMARK    8  A    between atoms: C_20  and  C_30 
ROOT
HETATM    1  O   UNL     1       7.271  25.820  -3.296  1.00  0.00    -0.304 OA
HETATM    2  O   UNL     1       8.446  24.478  -7.798  1.00  0.00    -0.304 OA
HETATM    3  O   UNL     1       9.611  21.691  -5.093  1.00  0.00    -0.304 OA
HETATM    4  O   UNL     1       6.582  24.178  -5.237  1.00  0.00    -0.270 OA
HETATM    5  O   UNL     1       9.428  26.134  -4.054  1.00  0.00    -0.263 OA
HETATM    6  O   UNL     1       8.293  22.447  -2.994  1.00  0.00    -0.270 OA
HETATM    7  O   UNL     1       7.442  24.085  -9.831  1.00  0.00    -0.263 OA
HETATM    8  O   UNL     1      10.385  23.198 -10.344  1.00  0.00    -0.270 OA
HETATM    9  O   UNL     1      11.425  21.317  -6.470  1.00  0.00    -0.263 OA
HETATM   10  N   UNL     1       6.341  25.801  -6.878  1.00  0.00    -0.340 N 
HETATM   11  N   UNL     1       9.994  23.918  -2.425  1.00  0.00    -0.340 N 
HETATM   12  N   UNL     1       9.777  21.705  -8.678  1.00  0.00    -0.340 N 
HETATM   13  C   UNL     1       6.095  24.788  -7.931  1.00  0.00     0.190 C 
HETATM   14  C   UNL     1       9.017  24.929  -1.977  1.00  0.00     0.190 C 
HETATM   15  C   UNL     1       6.726  26.444  -4.476  1.00  0.00     0.227 C 
HETATM   16  C   UNL     1       9.154  21.413  -7.370  1.00  0.00     0.190 C 
HETATM   17  C   UNL     1      10.434  21.981  -3.943  1.00  0.00     0.227 C 
HETATM   18  C   UNL     1       9.776  24.195  -8.242  1.00  0.00     0.227 C 
HETATM   19  C   UNL     1       6.549  25.372  -5.558  1.00  0.00     0.250 C 
HETATM   20  C   UNL     1       8.631  25.702  -3.231  1.00  0.00     0.283 C 
HETATM   21  C   UNL     1       9.482  22.777  -3.061  1.00  0.00     0.250 C 
HETATM   22  C   UNL     1       7.394  24.447  -8.662  1.00  0.00     0.283 C 
HETATM   23  C   UNL     1       9.991  22.995  -9.191  1.00  0.00     0.250 C 
HETATM   24  C   UNL     1      10.224  21.457  -6.291  1.00  0.00     0.283 C 
HETATM   25  C   UNL     1       6.421  27.197  -7.320  1.00  0.00     0.153 C 
HETATM   26  C   UNL     1      11.424  24.217  -2.317  1.00  0.00     0.153 C 
HETATM   27  C   UNL     1      10.198  20.567  -9.496  1.00  0.00     0.153 C 
ENDROOT
BRANCH  15  28
HETATM   28  C   UNL     1       5.373  27.026  -4.088  1.00  0.00     0.016 C 
HETATM   29  C   UNL     1       4.249  26.342  -4.864  1.00  0.00     0.012 C 
HETATM   30  C   UNL     1       5.141  26.896  -2.584  1.00  0.00     0.012 C 
ENDBRANCH  15  28
BRANCH  14  31
HETATM   31  C   UNL     1       9.484  25.897  -0.899  1.00  0.00     0.014 C 
HETATM   32  C   UNL     1       8.687  27.200  -0.993  1.00  0.00     0.012 C 
BRANCH  31  33
HETATM   33  C   UNL     1       9.352  25.305   0.515  1.00  0.00     0.002 C 
HETATM   34  C   UNL     1      10.662  24.767   1.075  1.00  0.00     0.005 C 
ENDBRANCH  31  33
ENDBRANCH  14  31
BRANCH  13  35
HETATM   35  C   UNL     1       4.989  25.184  -8.908  1.00  0.00     0.014 C 
HETATM   36  C   UNL     1       5.161  24.420 -10.224  1.00  0.00     0.012 C 
BRANCH  35  37
HETATM   37  C   UNL     1       3.582  24.928  -8.338  1.00  0.00     0.002 C 
HETATM   38  C   UNL     1       3.528  23.778  -7.344  1.00  0.00     0.005 C 
ENDBRANCH  35  37
ENDBRANCH  13  35
BRANCH  17  39
HETATM   39  C   UNL     1      10.851  20.692  -3.258  1.00  0.00     0.016 C 
HETATM   40  C   UNL     1      11.409  19.700  -4.275  1.00  0.00     0.012 C 
HETATM   41  C   UNL     1       9.674  20.081  -2.501  1.00  0.00     0.012 C 
ENDBRANCH  17  39
BRANCH  18  42
HETATM   42  C   UNL     1      10.348  25.484  -8.833  1.00  0.00     0.016 C 
HETATM   43  C   UNL     1      11.189  26.227  -7.795  1.00  0.00     0.012 C 
HETATM   44  C   UNL     1      11.179  25.184 -10.079  1.00  0.00     0.012 C 
ENDBRANCH  18  42
BRANCH  16  45
HETATM   45  C   UNL     1       8.391  20.092  -7.297  1.00  0.00     0.010 C 
HETATM   46  C   UNL     1       7.105  20.254  -6.487  1.00  0.00     0.012 C 
HETATM   47  C   UNL     1       9.267  18.994  -6.693  1.00  0.00     0.012 C 
ENDBRANCH  16  45
TORSDOF 8
ENDMDL
MODEL 4
REMARK VINA RESULT:    -3.143      2.759      5.508
REMARK INTER + INTRA:           2.549
REMARK INTER:                  -3.116
REMARK INTRA:                   5.664
REMARK UNBOUND:                 7.161
REMARK  8 active torsions:
REMARK  status: ('A' for Active; 'I' for Inactive)
REMARK    1  A    between atoms: C_13  and  C_15 
REMARK    2  A    between atoms: C_14  and  C_16 
REMARK    3  A    between atoms: C_15  and  C_22 
REMARK    4  A    between atoms: C_16  and  C_23 
REMARK    5  A    between atoms: C_17  and  C_21 
REMARK    6  A    between atoms: C_18  and  C_24 
REMARK    7  A    between atoms: C_19  and  C_27 
REMARK    8  A    between atoms: C_20  and  C_30 
ROOT
HETATM    1  O   UNL     1       0.102  25.192  12.555  1.00  0.00    -0.304 OA
HETATM    2  O   UNL     1       3.182  24.636   8.860  1.00  0.00    -0.304 OA
HETATM    3  O   UNL     1      -0.606  25.197   7.529  1.00  0.00    -0.304 OA
HETATM    4  O   UNL     1       1.355  26.521  10.656  1.00  0.00    -0.270 OA
HETATM    5  O   UNL     1       0.273  23.141  11.511  1.00  0.00    -0.263 OA
HETATM    6  O   UNL     1      -1.772  26.051   9.679  1.00  0.00    -0.270 OA
HETATM    7  O   UNL     1       5.095  25.593   8.009  1.00  0.00    -0.263 OA
HETATM    8  O   UNL     1       4.358  23.492   5.827  1.00  0.00    -0.270 OA
HETATM    9  O   UNL     1      -0.064  23.759   5.808  1.00  0.00    -0.263 OA
HETATM   10  N   UNL     1       3.494  25.816  11.213  1.00  0.00    -0.340 N 
HETATM   11  N   UNL     1      -2.180  23.869  10.355  1.00  0.00    -0.340 N 
HETATM   12  N   UNL     1       2.490  24.862   5.745  1.00  0.00    -0.340 N 
HETATM   13  C   UNL     1       4.090  26.489  10.035  1.00  0.00     0.190 C 
HETATM   14  C   UNL     1      -1.898  24.216  11.761  1.00  0.00     0.190 C 
HETATM   15  C   UNL     1       1.534  25.281  12.697  1.00  0.00     0.227 C 
HETATM   16  C   UNL     1       1.408  25.613   6.416  1.00  0.00     0.190 C 
HETATM   17  C   UNL     1      -1.734  24.402   7.953  1.00  0.00     0.227 C 
HETATM   18  C   UNL     1       3.082  23.615   7.862  1.00  0.00     0.227 C 
HETATM   19  C   UNL     1       2.112  25.924  11.431  1.00  0.00     0.250 C 
HETATM   20  C   UNL     1      -0.388  24.088  11.915  1.00  0.00     0.283 C 
HETATM   21  C   UNL     1      -1.923  24.858   9.394  1.00  0.00     0.250 C 
HETATM   22  C   UNL     1       4.227  25.510   8.869  1.00  0.00     0.283 C 
HETATM   23  C   UNL     1       3.382  23.994   6.395  1.00  0.00     0.250 C 
HETATM   24  C   UNL     1       0.176  24.728   6.513  1.00  0.00     0.283 C 
HETATM   25  C   UNL     1       4.404  25.012  12.036  1.00  0.00     0.153 C 
HETATM   26  C   UNL     1      -2.564  22.495  10.027  1.00  0.00     0.153 C 
HETATM   27  C   UNL     1       2.641  25.039   4.300  1.00  0.00     0.153 C 
ENDROOT
BRANCH  15  28
HETATM   28  C   UNL     1       1.808  26.165  13.906  1.00  0.00     0.016 C 
HETATM   29  C   UNL     1       0.532  26.375  14.721  1.00  0.00     0.012 C 
HETATM   30  C   UNL     1       2.906  25.561  14.779  1.00  0.00     0.012 C 
ENDBRANCH  15  28
BRANCH  14  31
HETATM   31  C   UNL     1      -2.596  23.377  12.823  1.00  0.00     0.014 C 
HETATM   32  C   UNL     1      -1.903  23.569  14.173  1.00  0.00     0.012 C 
BRANCH  31  33
HETATM   33  C   UNL     1      -4.091  23.720  12.950  1.00  0.00     0.002 C 
HETATM   34  C   UNL     1      -4.672  23.415  14.324  1.00  0.00     0.005 C 
ENDBRANCH  31  33
ENDBRANCH  14  31
BRANCH  13  35
HETATM   35  C   UNL     1       5.415  27.186  10.340  1.00  0.00     0.014 C 
HETATM   36  C   UNL     1       5.746  27.043  11.828  1.00  0.00     0.012 C 
BRANCH  35  37
HETATM   37  C   UNL     1       6.577  26.634   9.494  1.00  0.00     0.002 C 
HETATM   38  C   UNL     1       7.949  27.067   9.988  1.00  0.00     0.005 C 
ENDBRANCH  35  37
ENDBRANCH  13  35
BRANCH  17  39
HETATM   39  C   UNL     1      -2.956  24.736   7.118  1.00  0.00     0.016 C 
HETATM   40  C   UNL     1      -3.082  26.246   6.931  1.00  0.00     0.012 C 
HETATM   41  C   UNL     1      -4.219  24.168   7.763  1.00  0.00     0.012 C 
ENDBRANCH  17  39
BRANCH  18  42
HETATM   42  C   UNL     1       3.940  22.436   8.321  1.00  0.00     0.016 C 
HETATM   43  C   UNL     1       3.427  21.879   9.649  1.00  0.00     0.012 C 
HETATM   44  C   UNL     1       3.967  21.341   7.257  1.00  0.00     0.012 C 
ENDBRANCH  18  42
BRANCH  16  45
HETATM   45  C   UNL     1       1.045  26.946   5.764  1.00  0.00     0.010 C 
HETATM   46  C   UNL     1      -0.437  26.978   5.390  1.00  0.00     0.012 C 
HETATM   47  C   UNL     1       1.912  27.200   4.531  1.00  0.00     0.012 C 
ENDBRANCH  16  45
TORSDOF 8
ENDMDL
MODEL 5
REMARK VINA RESULT:    -3.060      4.028     10.305
REMARK INTER + INTRA:           2.670
REMARK INTER:                  -0.971
REMARK INTRA:                   3.641
REMARK UNBOUND:                 7.161
REMARK  8 active torsions:
REMARK  status: ('A' for Active; 'I' for Inactive)
REMARK    1  A    between atoms: C_13  and  C_15 
REMARK    2  A    between atoms: C_14  and  C_16 
REMARK    3  A    between atoms: C_15  and  C_22 
REMARK    4  A    between atoms: C_16  and  C_23 
REMARK    5  A    between atoms: C_17  and  C_21 
REMARK    6  A    between atoms: C_18  and  C_24 
REMARK    7  A    between atoms: C_19  and  C_27 
REMARK    8  A    between atoms: C_20  and  C_30 
ROOT
HETATM    1  O   UNL     1       4.754  26.051  -0.272  1.00  0.00    -0.304 OA
HETATM    2  O   UNL     1       6.895  23.486   3.233  1.00  0.00    -0.304 OA
HETATM    3  O   UNL     1       9.631  25.507   1.026  1.00  0.00    -0.304 OA
HETATM    4  O   UNL     1       5.932  26.287   2.072  1.00  0.00    -0.270 OA
HETATM    5  O   UNL     1       5.709  24.010  -0.772  1.00  0.00    -0.263 OA
HETATM    6  O   UNL     1       8.111  27.168  -0.258  1.00  0.00    -0.270 OA
HETATM    7  O   UNL     1       6.863  23.275   5.525  1.00  0.00    -0.263 OA
HETATM    8  O   UNL     1       9.226  21.416   4.706  1.00  0.00    -0.270 OA
HETATM    9  O   UNL     1      11.032  23.707   1.371  1.00  0.00    -0.263 OA
HETATM   10  N   UNL     1       4.579  24.775   3.197  1.00  0.00    -0.340 N 
HETATM   11  N   UNL     1       7.735  25.584  -1.912  1.00  0.00    -0.340 N 
HETATM   12  N   UNL     1      10.013  23.461   3.949  1.00  0.00    -0.340 N 
HETATM   13  C   UNL     1       5.390  24.875   4.434  1.00  0.00     0.190 C 
HETATM   14  C   UNL     1       6.325  25.999  -2.036  1.00  0.00     0.190 C 
HETATM   15  C   UNL     1       4.039  25.485   0.845  1.00  0.00     0.227 C 
HETATM   16  C   UNL     1       9.814  24.734   3.225  1.00  0.00     0.190 C 
HETATM   17  C   UNL     1       9.729  25.418  -0.412  1.00  0.00     0.227 C 
HETATM   18  C   UNL     1       7.883  22.473   3.015  1.00  0.00     0.227 C 
HETATM   19  C   UNL     1       4.938  25.551   2.085  1.00  0.00     0.250 C 
HETATM   20  C   UNL     1       5.576  25.210  -0.970  1.00  0.00     0.283 C 
HETATM   21  C   UNL     1       8.475  26.154  -0.865  1.00  0.00     0.250 C 
HETATM   22  C   UNL     1       6.432  23.758   4.485  1.00  0.00     0.283 C 
HETATM   23  C   UNL     1       9.087  22.406   3.979  1.00  0.00     0.250 C 
HETATM   24  C   UNL     1      10.257  24.558   1.781  1.00  0.00     0.283 C 
HETATM   25  C   UNL     1       3.486  23.797   3.210  1.00  0.00     0.153 C 
HETATM   26  C   UNL     1       8.239  24.514  -2.776  1.00  0.00     0.153 C 
HETATM   27  C   UNL     1      11.265  23.291   4.687  1.00  0.00     0.153 C 
ENDROOT
BRANCH  15  28
HETATM   28  C   UNL     1       2.793  26.335   1.054  1.00  0.00     0.016 C 
HETATM   29  C   UNL     1       1.531  25.486   0.912  1.00  0.00     0.012 C 
HETATM   30  C   UNL     1       2.829  27.016   2.421  1.00  0.00     0.012 C 
ENDBRANCH  15  28
BRANCH  14  31
HETATM   31  C   UNL     1       5.668  25.782  -3.393  1.00  0.00     0.014 C 
HETATM   32  C   UNL     1       4.607  26.858  -3.632  1.00  0.00     0.012 C 
BRANCH  31  33
HETATM   33  C   UNL     1       6.689  25.792  -4.544  1.00  0.00     0.002 C 
HETATM   34  C   UNL     1       6.074  25.504  -5.907  1.00  0.00     0.005 C 
ENDBRANCH  31  33
ENDBRANCH  14  31
BRANCH  13  35
HETATM   35  C   UNL     1       4.548  24.914   5.709  1.00  0.00     0.014 C 
HETATM   36  C   UNL     1       3.857  26.274   5.833  1.00  0.00     0.012 C 
BRANCH  35  37
HETATM   37  C   UNL     1       3.497  23.790   5.754  1.00  0.00     0.002 C 
HETATM   38  C   UNL     1       2.576  23.866   6.963  1.00  0.00     0.005 C 
ENDBRANCH  35  37
ENDBRANCH  13  35
BRANCH  17  39
HETATM   39  C   UNL     1      10.977  26.132  -0.898  1.00  0.00     0.016 C 
HETATM   40  C   UNL     1      11.425  27.181   0.116  1.00  0.00     0.012 C 
HETATM   41  C   UNL     1      10.730  26.775  -2.261  1.00  0.00     0.012 C 
ENDBRANCH  17  39
BRANCH  18  42
HETATM   42  C   UNL     1       7.155  21.131   2.933  1.00  0.00     0.016 C 
HETATM   43  C   UNL     1       5.668  21.338   2.651  1.00  0.00     0.012 C 
HETATM   44  C   UNL     1       7.784  20.240   1.863  1.00  0.00     0.012 C 
ENDBRANCH  18  42
BRANCH  16  45
HETATM   45  C   UNL     1      10.511  25.945   3.842  1.00  0.00     0.010 C 
HETATM   46  C   UNL     1       9.488  26.915   4.433  1.00  0.00     0.012 C 
HETATM   47  C   UNL     1      11.382  26.654   2.806  1.00  0.00     0.012 C 
ENDBRANCH  16  45
TORSDOF 8
ENDMDL
MODEL 6
REMARK VINA RESULT:    -2.830      1.588      2.447
REMARK INTER + INTRA:           3.008
REMARK INTER:                  -2.607
REMARK INTRA:                   5.615
REMARK UNBOUND:                 7.161
REMARK  8 active torsions:
REMARK  status: ('A' for Active; 'I' for Inactive)
REMARK    1  A    between atoms: C_13  and  C_15 
REMARK    2  A    between atoms: C_14  and  C_16 
REMARK    3  A    between atoms: C_15  and  C_22 
REMARK    4  A    between atoms: C_16  and  C_23 
REMARK    5  A    between atoms: C_17  and  C_21 
REMARK    6  A    between atoms: C_18  and  C_24 
REMARK    7  A    between atoms: C_19  and  C_27 
REMARK    8  A    between atoms: C_20  and  C_30 
ROOT
HETATM    1  O   UNL     1       1.878  25.512   9.571  1.00  0.00    -0.304 OA
HETATM    2  O   UNL     1       2.506  24.575   4.862  1.00  0.00    -0.304 OA
HETATM    3  O   UNL     1      -1.359  25.502   5.661  1.00  0.00    -0.304 OA
HETATM    4  O   UNL     1       2.049  26.670   7.212  1.00  0.00    -0.270 OA
HETATM    5  O   UNL     1       1.313  23.436   8.735  1.00  0.00    -0.263 OA
HETATM    6  O   UNL     1      -1.152  26.510   8.040  1.00  0.00    -0.270 OA
HETATM    7  O   UNL     1       3.756  25.314   3.077  1.00  0.00    -0.263 OA
HETATM    8  O   UNL     1       1.822  23.263   1.748  1.00  0.00    -0.270 OA
HETATM    9  O   UNL     1      -1.916  23.986   4.014  1.00  0.00    -0.263 OA
HETATM   10  N   UNL     1       4.098  25.758   6.621  1.00  0.00    -0.340 N 
HETATM   11  N   UNL     1      -1.315  24.394   8.978  1.00  0.00    -0.340 N 
HETATM   12  N   UNL     1       0.303  24.818   2.556  1.00  0.00    -0.340 N 
HETATM   13  C   UNL     1       4.038  26.345   5.262  1.00  0.00     0.190 C 
HETATM   14  C   UNL     1      -0.311  24.734  10.004  1.00  0.00     0.190 C 
HETATM   15  C   UNL     1       3.173  25.454   8.941  1.00  0.00     0.227 C 
HETATM   16  C   UNL     1      -0.203  25.688   3.638  1.00  0.00     0.190 C 
HETATM   17  C   UNL     1      -2.155  24.835   6.665  1.00  0.00     0.227 C 
HETATM   18  C   UNL     1       1.817  23.553   4.136  1.00  0.00     0.227 C 
HETATM   19  C   UNL     1       3.049  26.012   7.518  1.00  0.00     0.250 C 
HETATM   20  C   UNL     1       1.039  24.453   9.358  1.00  0.00     0.283 C 
HETATM   21  C   UNL     1      -1.524  25.334   7.958  1.00  0.00     0.250 C 
HETATM   22  C   UNL     1       3.466  25.337   4.266  1.00  0.00     0.283 C 
HETATM   23  C   UNL     1       1.332  23.873   2.704  1.00  0.00     0.250 C 
HETATM   24  C   UNL     1      -1.266  24.937   4.422  1.00  0.00     0.283 C 
HETATM   25  C   UNL     1       5.238  24.879   6.904  1.00  0.00     0.153 C 
HETATM   26  C   UNL     1      -1.922  23.061   8.993  1.00  0.00     0.153 C 
HETATM   27  C   UNL     1      -0.313  24.952   1.235  1.00  0.00     0.153 C 
ENDROOT
BRANCH  15  28
HETATM   28  C   UNL     1       4.109  26.327   9.767  1.00  0.00     0.016 C 
HETATM   29  C   UNL     1       3.318  27.182  10.755  1.00  0.00     0.012 C 
HETATM   30  C   UNL     1       5.135  25.468  10.504  1.00  0.00     0.012 C 
ENDBRANCH  15  28
BRANCH  14  31
HETATM   31  C   UNL     1      -0.413  23.990  11.329  1.00  0.00     0.014 C 
HETATM   32  C   UNL     1       0.704  24.452  12.268  1.00  0.00     0.012 C 
BRANCH  31  33
HETATM   33  C   UNL     1      -1.780  24.188  12.007  1.00  0.00     0.002 C 
HETATM   34  C   UNL     1      -2.441  22.885  12.436  1.00  0.00     0.005 C 
ENDBRANCH  31  33
ENDBRANCH  14  31
BRANCH  13  35
HETATM   35  C   UNL     1       5.377  26.906   4.784  1.00  0.00     0.014 C 
HETATM   36  C   UNL     1       6.277  27.197   5.987  1.00  0.00     0.012 C 
BRANCH  35  37
HETATM   37  C   UNL     1       6.099  25.955   3.812  1.00  0.00     0.002 C 
HETATM   38  C   UNL     1       7.599  26.194   3.729  1.00  0.00     0.005 C 
ENDBRANCH  35  37
ENDBRANCH  13  35
BRANCH  17  39
HETATM   39  C   UNL     1      -3.603  25.279   6.567  1.00  0.00     0.016 C 
HETATM   40  C   UNL     1      -3.752  26.729   7.022  1.00  0.00     0.012 C 
HETATM   41  C   UNL     1      -4.503  24.362   7.392  1.00  0.00     0.012 C 
ENDBRANCH  17  39
BRANCH  18  42
HETATM   42  C   UNL     1       2.692  22.299   4.162  1.00  0.00     0.016 C 
HETATM   43  C   UNL     1       3.543  22.207   2.895  1.00  0.00     0.012 C 
HETATM   44  C   UNL     1       3.580  22.286   5.404  1.00  0.00     0.012 C 
ENDBRANCH  18  42
BRANCH  16  45
HETATM   45  C   UNL     1      -0.748  27.040   3.180  1.00  0.00     0.010 C 
HETATM   46  C   UNL     1      -2.211  27.199   3.590  1.00  0.00     0.012 C 
HETATM   47  C   UNL     1      -0.597  27.200   1.667  1.00  0.00     0.012 C 
ENDBRANCH  16  45
TORSDOF 8
ENDMDL
MODEL 7
REMARK VINA RESULT:    -2.577      1.995      3.873
REMARK INTER + INTRA:           3.380
REMARK INTER:                  -4.008
REMARK INTRA:                   7.388
REMARK UNBOUND:                 7.161
REMARK  8 active torsions:
REMARK  status: ('A' for Active; 'I' for Inactive)
REMARK    1  A    between atoms: C_13  and  C_15 
REMARK    2  A    between atoms: C_14  and  C_16 
REMARK    3  A    between atoms: C_15  and  C_22 
REMARK    4  A    between atoms: C_16  and  C_23 
REMARK    5  A    between atoms: C_17  and  C_21 
REMARK    6  A    between atoms: C_18  and  C_24 
REMARK    7  A    between atoms: C_19  and  C_27 
REMARK    8  A    between atoms: C_20  and  C_30 
ROOT
HETATM    1  O   UNL     1       0.276  25.573   9.726  1.00  0.00    -0.304 OA
HETATM    2  O   UNL     1       2.981  24.733   5.799  1.00  0.00    -0.304 OA
HETATM    3  O   UNL     1      -0.876  25.463   4.784  1.00  0.00    -0.304 OA
HETATM    4  O   UNL     1       1.423  26.771   7.680  1.00  0.00    -0.270 OA
HETATM    5  O   UNL     1       0.245  23.485   8.744  1.00  0.00    -0.263 OA
HETATM    6  O   UNL     1      -1.799  26.446   6.996  1.00  0.00    -0.270 OA
HETATM    7  O   UNL     1       4.858  25.556   4.751  1.00  0.00    -0.263 OA
HETATM    8  O   UNL     1       3.821  23.434   2.718  1.00  0.00    -0.270 OA
HETATM    9  O   UNL     1      -0.566  23.945   3.074  1.00  0.00    -0.263 OA
HETATM   10  N   UNL     1       3.563  25.966   8.073  1.00  0.00    -0.340 N 
HETATM   11  N   UNL     1      -2.259  24.312   7.782  1.00  0.00    -0.340 N 
HETATM   12  N   UNL     1       2.027  24.902   2.750  1.00  0.00    -0.340 N 
HETATM   13  C   UNL     1       4.086  26.569   6.824  1.00  0.00     0.190 C 
HETATM   14  C   UNL     1      -1.836  24.686   9.145  1.00  0.00     0.190 C 
HETATM   15  C   UNL     1       1.717  25.587   9.739  1.00  0.00     0.227 C 
HETATM   16  C   UNL     1       1.050  25.732   3.486  1.00  0.00     0.190 C 
HETATM   17  C   UNL     1      -2.001  24.745   5.333  1.00  0.00     0.227 C 
HETATM   18  C   UNL     1       2.739  23.690   4.850  1.00  0.00     0.227 C 
HETATM   19  C   UNL     1       2.213  26.157   8.406  1.00  0.00     0.250 C 
HETATM   20  C   UNL     1      -0.327  24.479   9.171  1.00  0.00     0.283 C 
HETATM   21  C   UNL     1      -2.038  25.255   6.768  1.00  0.00     0.250 C 
HETATM   22  C   UNL     1       4.067  25.548   5.686  1.00  0.00     0.283 C 
HETATM   23  C   UNL     1       2.927  24.006   3.350  1.00  0.00     0.250 C 
HETATM   24  C   UNL     1      -0.213  24.920   3.721  1.00  0.00     0.283 C 
HETATM   25  C   UNL     1       4.499  25.139   8.841  1.00  0.00     0.153 C 
HETATM   26  C   UNL     1      -2.743  22.951   7.537  1.00  0.00     0.153 C 
HETATM   27  C   UNL     1       2.058  25.025   1.292  1.00  0.00     0.153 C 
ENDROOT
BRANCH  15  28
HETATM   28  C   UNL     1       2.144  26.491  10.888  1.00  0.00     0.016 C 
HETATM   29  C   UNL     1       1.119  26.445  12.020  1.00  0.00     0.012 C 
HETATM   30  C   UNL     1       3.527  26.095  11.402  1.00  0.00     0.012 C 
ENDBRANCH  15  28
BRANCH  14  31
HETATM   31  C   UNL     1      -2.480  23.919  10.293  1.00  0.00     0.014 C 
HETATM   32  C   UNL     1      -1.519  23.865  11.482  1.00  0.00     0.012 C 
BRANCH  31  33
HETATM   33  C   UNL     1      -3.819  24.539  10.731  1.00  0.00     0.002 C 
HETATM   34  C   UNL     1      -4.880  23.507  11.088  1.00  0.00     0.005 C 
ENDBRANCH  31  33
ENDBRANCH  14  31
BRANCH  13  35
HETATM   35  C   UNL     1       5.468  27.200   6.987  1.00  0.00     0.014 C 
HETATM   36  C   UNL     1       5.904  27.123   8.453  1.00  0.00     0.012 C 
BRANCH  35  37
HETATM   37  C   UNL     1       6.528  26.531   6.094  1.00  0.00     0.002 C 
HETATM   38  C   UNL     1       7.907  27.165   6.206  1.00  0.00     0.005 C 
ENDBRANCH  35  37
ENDBRANCH  13  35
BRANCH  17  39
HETATM   39  C   UNL     1      -3.274  25.121   4.596  1.00  0.00     0.016 C 
HETATM   40  C   UNL     1      -3.148  26.513   3.983  1.00  0.00     0.012 C 
HETATM   41  C   UNL     1      -4.477  25.055   5.535  1.00  0.00     0.012 C 
ENDBRANCH  17  39
BRANCH  18  42
HETATM   42  C   UNL     1       3.571  22.479   5.275  1.00  0.00     0.016 C 
HETATM   43  C   UNL     1       5.029  22.648   4.847  1.00  0.00     0.012 C 
HETATM   44  C   UNL     1       3.478  22.262   6.784  1.00  0.00     0.012 C 
ENDBRANCH  18  42
BRANCH  16  45
HETATM   45  C   UNL     1       0.701  27.062   2.821  1.00  0.00     0.010 C 
HETATM   46  C   UNL     1      -0.811  27.199   2.646  1.00  0.00     0.012 C 
HETATM   47  C   UNL     1       1.408  27.196   1.473  1.00  0.00     0.012 C 
ENDBRANCH  16  45
TORSDOF 8
ENDMDL
