MODEL 1
REMARK VINA RESULT:    -7.366      0.000      0.000
REMARK INTER + INTRA:         -10.540
REMARK INTER:                 -11.118
REMARK INTRA:                   0.578
REMARK UNBOUND:                 0.702
REMARK  9 active torsions:
REMARK  status: ('A' for Active; 'I' for Inactive)
REMARK    1  A    between atoms: C_13  and  C_16 
REMARK    2  A    between atoms: C_14  and  C_17 
REMARK    3  A    between atoms: C_15  and  C_18 
REMARK    4  A    between atoms: C_16  and  C_22 
REMARK    5  A    between atoms: C_17  and  C_23 
REMARK    6  A    between atoms: C_18  and  C_24 
REMARK    7  A    between atoms: C_19  and  C_25 
REMARK    8  A    between atoms: C_20  and  C_26 
REMARK    9  A    between atoms: C_21  and  C_27 
ROOT
HETATM    1  O   UNL     1       7.204  -0.409   6.612  1.00  0.00    -0.304 OA
HETATM    2  O   UNL     1      12.146   0.097   7.656  1.00  0.00    -0.304 OA
HETATM    3  O   UNL     1       8.384  -1.224  10.405  1.00  0.00    -0.304 OA
HETATM    4  O   UNL     1       9.483  -0.371   5.375  1.00  0.00    -0.270 OA
HETATM    5  O   UNL     1       5.188  -1.144  11.696  1.00  0.00    -0.270 OA
HETATM    6  O   UNL     1      10.499  -1.904   8.127  1.00  0.00    -0.270 OA
HETATM    7  O   UNL     1       5.254   0.398   7.541  1.00  0.00    -0.263 OA
HETATM    8  O   UNL     1      10.757   1.713   8.544  1.00  0.00    -0.263 OA
HETATM    9  O   UNL     1       7.697  -2.992  11.708  1.00  0.00    -0.263 OA
HETATM   10  N   UNL     1       9.767   1.866   5.920  1.00  0.00    -0.340 N 
HETATM   11  N   UNL     1       5.363  -1.638   9.436  1.00  0.00    -0.340 N 
HETATM   12  N   UNL     1      10.905  -2.045  10.407  1.00  0.00    -0.340 N 
HETATM   13  C   UNL     1      11.212   1.660   6.150  1.00  0.00     0.190 C 
HETATM   14  C   UNL     1       6.164  -1.772   8.202  1.00  0.00     0.190 C 
HETATM   15  C   UNL     1       9.858  -3.076  10.593  1.00  0.00     0.190 C 
HETATM   16  C   UNL     1       7.493   0.829   5.928  1.00  0.00     0.227 C 
HETATM   17  C   UNL     1      12.289  -0.539   8.942  1.00  0.00     0.227 C 
HETATM   18  C   UNL     1       7.224  -0.420  10.638  1.00  0.00     0.227 C 
HETATM   19  C   UNL     1       8.992   0.721   5.687  1.00  0.00     0.250 C 
HETATM   20  C   UNL     1       5.843  -1.113  10.647  1.00  0.00     0.250 C 
HETATM   21  C   UNL     1      11.151  -1.550   9.117  1.00  0.00     0.250 C 
HETATM   22  C   UNL     1       6.116  -0.462   7.432  1.00  0.00     0.283 C 
HETATM   23  C   UNL     1      11.327   1.190   7.594  1.00  0.00     0.283 C 
HETATM   24  C   UNL     1       8.537  -2.432  11.015  1.00  0.00     0.283 C 
HETATM   25  C   UNL     1       9.206   3.208   6.086  1.00  0.00     0.153 C 
HETATM   26  C   UNL     1       3.970  -2.084   9.392  1.00  0.00     0.153 C 
HETATM   27  C   UNL     1      11.566  -1.559  11.623  1.00  0.00     0.153 C 
ENDROOT
BRANCH  16  28
HETATM   28  C   UNL     1       6.739   0.891   4.612  1.00  0.00     0.016 C 
HETATM   29  C   UNL     1       7.701   1.139   3.452  1.00  0.00     0.012 C 
HETATM   30  C   UNL     1       5.664   1.975   4.657  1.00  0.00     0.012 C 
ENDBRANCH  16  28
BRANCH  14  31
HETATM   31  C   UNL     1       5.759  -2.930   7.291  1.00  0.00     0.014 C 
HETATM   32  C   UNL     1       5.097  -2.383   6.024  1.00  0.00     0.012 C 
BRANCH  31  33
HETATM   33  C   UNL     1       6.953  -3.823   6.913  1.00  0.00     0.002 C 
HETATM   34  C   UNL     1       6.726  -4.640   5.649  1.00  0.00     0.005 C 
ENDBRANCH  31  33
ENDBRANCH  14  31
BRANCH  13  35
HETATM   35  C   UNL     1      12.115   2.865   5.927  1.00  0.00     0.014 C 
HETATM   36  C   UNL     1      13.228   2.881   6.978  1.00  0.00     0.012 C 
BRANCH  35  37
HETATM   37  C   UNL     1      12.730   2.886   4.517  1.00  0.00     0.002 C 
HETATM   38  C   UNL     1      11.882   2.172   3.472  1.00  0.00     0.005 C 
ENDBRANCH  35  37
ENDBRANCH  13  35
BRANCH  18  39
HETATM   39  C   UNL     1       7.461   0.369  11.927  1.00  0.00     0.016 C 
HETATM   40  C   UNL     1       8.901   0.871  11.992  1.00  0.00     0.012 C 
HETATM   41  C   UNL     1       6.480   1.536  12.030  1.00  0.00     0.012 C 
ENDBRANCH  18  39
BRANCH  17  42
HETATM   42  C   UNL     1      13.632  -1.256   8.937  1.00  0.00     0.016 C 
HETATM   43  C   UNL     1      14.772  -0.269   8.693  1.00  0.00     0.012 C 
HETATM   44  C   UNL     1      13.649  -2.363   7.884  1.00  0.00     0.012 C 
ENDBRANCH  17  42
BRANCH  15  45
HETATM   45  C   UNL     1      10.269  -4.192  11.553  1.00  0.00     0.014 C 
HETATM   46  C   UNL     1       9.155  -5.241  11.644  1.00  0.00     0.012 C 
BRANCH  45  47
HETATM   47  C   UNL     1      11.588  -4.872  11.139  1.00  0.00     0.002 C 
HETATM   48  C   UNL     1      11.758  -6.267  11.721  1.00  0.00     0.005 C 
ENDBRANCH  45  47
ENDBRANCH  15  45
TORSDOF 9
ENDMDL
MODEL 2
REMARK VINA RESULT:    -7.286      1.810      5.010
REMARK INTER + INTRA:         -10.418
REMARK INTER:                 -10.672
REMARK INTRA:                   0.255
REMARK UNBOUND:                 0.702
REMARK  9 active torsions:
REMARK  status: ('A' for Active; 'I' for Inactive)
REMARK    1  A    between atoms: C_13  and  C_16 
REMARK    2  A    between atoms: C_14  and  C_17 
REMARK    3  A    between atoms: C_15  and  C_18 
REMARK    4  A    between atoms: C_16  and  C_22 
REMARK    5  A    between atoms: C_17  and  C_23 
REMARK    6  A    between atoms: C_18  and  C_24 
REMARK    7  A    between atoms: C_19  and  C_25 
REMARK    8  A    between atoms: C_20  and  C_26 
REMARK    9  A    between atoms: C_21  and  C_27 
ROOT
HETATM    1  O   UNL     1       7.244  -2.546   9.788  1.00  0.00    -0.304 OA
HETATM    2  O   UNL     1       9.197   0.197   5.989  1.00  0.00    -0.304 OA
HETATM    3  O   UNL     1      10.382  -0.136  10.674  1.00  0.00    -0.304 OA
HETATM    4  O   UNL     1       7.337  -2.560   7.197  1.00  0.00    -0.270 OA
HETATM    5  O   UNL     1       9.904  -0.327  14.083  1.00  0.00    -0.270 OA
HETATM    6  O   UNL     1      10.379  -1.374   7.743  1.00  0.00    -0.270 OA
HETATM    7  O   UNL     1       6.461  -2.070  11.904  1.00  0.00    -0.263 OA
HETATM    8  O   UNL     1       7.982   1.372   7.561  1.00  0.00    -0.263 OA
HETATM    9  O   UNL     1      12.191  -0.665  11.993  1.00  0.00    -0.263 OA
HETATM   10  N   UNL     1       6.059  -0.625   7.118  1.00  0.00    -0.340 N 
HETATM   11  N   UNL     1       9.083  -2.103  12.837  1.00  0.00    -0.340 N 
HETATM   12  N   UNL     1      11.895   0.200   8.522  1.00  0.00    -0.340 N 
HETATM   13  C   UNL     1       6.854  -0.106   5.986  1.00  0.00     0.190 C 
HETATM   14  C   UNL     1       8.782  -2.739  11.537  1.00  0.00     0.190 C 
HETATM   15  C   UNL     1      12.402  -0.717   9.570  1.00  0.00     0.190 C 
HETATM   16  C   UNL     1       6.035  -2.089   9.144  1.00  0.00     0.227 C 
HETATM   17  C   UNL     1      10.440   0.689   6.529  1.00  0.00     0.227 C 
HETATM   18  C   UNL     1       9.495   0.147  11.760  1.00  0.00     0.227 C 
HETATM   19  C   UNL     1       6.515  -1.803   7.727  1.00  0.00     0.250 C 
HETATM   20  C   UNL     1       9.531  -0.781  12.994  1.00  0.00     0.250 C 
HETATM   21  C   UNL     1      10.894  -0.254   7.650  1.00  0.00     0.250 C 
HETATM   22  C   UNL     1       7.352  -2.409  11.140  1.00  0.00     0.283 C 
HETATM   23  C   UNL     1       8.050   0.591   6.621  1.00  0.00     0.283 C 
HETATM   24  C   UNL     1      11.684  -0.469  10.896  1.00  0.00     0.283 C 
HETATM   25  C   UNL     1       4.942   0.174   7.626  1.00  0.00     0.153 C 
HETATM   26  C   UNL     1       8.899  -2.908  14.044  1.00  0.00     0.153 C 
HETATM   27  C   UNL     1      12.440   1.561   8.527  1.00  0.00     0.153 C 
ENDROOT
BRANCH  16  28
HETATM   28  C   UNL     1       4.990  -3.190   9.145  1.00  0.00     0.016 C 
HETATM   29  C   UNL     1       4.627  -3.590   7.716  1.00  0.00     0.012 C 
HETATM   30  C   UNL     1       3.744  -2.750   9.910  1.00  0.00     0.012 C 
ENDBRANCH  16  28
BRANCH  14  31
HETATM   31  C   UNL     1       9.003  -4.250  11.492  1.00  0.00     0.014 C 
HETATM   32  C   UNL     1       7.687  -4.955  11.152  1.00  0.00     0.012 C 
BRANCH  31  33
HETATM   33  C   UNL     1      10.088  -4.653  10.478  1.00  0.00     0.002 C 
HETATM   34  C   UNL     1      11.480  -4.162  10.849  1.00  0.00     0.005 C 
ENDBRANCH  31  33
ENDBRANCH  14  31
BRANCH  13  35
HETATM   35  C   UNL     1       6.144   0.850   5.038  1.00  0.00     0.014 C 
HETATM   36  C   UNL     1       7.065   1.194   3.864  1.00  0.00     0.012 C 
BRANCH  35  37
HETATM   37  C   UNL     1       4.818   0.276   4.508  1.00  0.00     0.002 C 
HETATM   38  C   UNL     1       3.802   1.345   4.128  1.00  0.00     0.005 C 
ENDBRANCH  35  37
ENDBRANCH  13  35
BRANCH  18  39
HETATM   39  C   UNL     1       9.701   1.610  12.155  1.00  0.00     0.016 C 
HETATM   40  C   UNL     1      10.013   2.459  10.925  1.00  0.00     0.012 C 
HETATM   41  C   UNL     1       8.470   2.149  12.882  1.00  0.00     0.012 C 
ENDBRANCH  18  39
BRANCH  17  42
HETATM   42  C   UNL     1      11.454   0.679   5.393  1.00  0.00     0.016 C 
HETATM   43  C   UNL     1      11.627   2.081   4.812  1.00  0.00     0.012 C 
HETATM   44  C   UNL     1      11.033  -0.304   4.302  1.00  0.00     0.012 C 
ENDBRANCH  17  42
BRANCH  15  45
HETATM   45  C   UNL     1      13.920  -0.667   9.738  1.00  0.00     0.014 C 
HETATM   46  C   UNL     1      14.338  -1.478  10.969  1.00  0.00     0.012 C 
BRANCH  45  47
HETATM   47  C   UNL     1      14.670  -1.186   8.496  1.00  0.00     0.002 C 
HETATM   48  C   UNL     1      14.088  -2.472   7.930  1.00  0.00     0.005 C 
ENDBRANCH  45  47
ENDBRANCH  15  45
TORSDOF 9
ENDMDL
MODEL 3
REMARK VINA RESULT:    -7.119      2.000      6.405
REMARK INTER + INTRA:         -10.163
REMARK INTER:                 -10.815
REMARK INTRA:                   0.652
REMARK UNBOUND:                 0.702
REMARK  9 active torsions:
REMARK  status: ('A' for Active; 'I' for Inactive)
REMARK    1  A    between atoms: C_13  and  C_16 
REMARK    2  A    between atoms: C_14  and  C_17 
REMARK    3  A    between atoms: C_15  and  C_18 
REMARK    4  A    between atoms: C_16  and  C_22 
REMARK    5  A    between atoms: C_17  and  C_23 
REMARK    6  A    between atoms: C_18  and  C_24 
REMARK    7  A    between atoms: C_19  and  C_25 
REMARK    8  A    between atoms: C_20  and  C_26 
REMARK    9  A    between atoms: C_21  and  C_27 
ROOT
HETATM    1  O   UNL     1      10.125  -2.097   9.224  1.00  0.00    -0.304 OA
HETATM    2  O   UNL     1       8.695   1.301   5.734  1.00  0.00    -0.304 OA
HETATM    3  O   UNL     1       6.248  -2.189   8.036  1.00  0.00    -0.304 OA
HETATM    4  O   UNL     1      10.882   0.198   8.286  1.00  0.00    -0.270 OA
HETATM    5  O   UNL     1       5.636  -5.302   9.384  1.00  0.00    -0.270 OA
HETATM    6  O   UNL     1       7.617   0.684   8.057  1.00  0.00    -0.270 OA
HETATM    7  O   UNL     1       9.972  -4.390   9.421  1.00  0.00    -0.263 OA
HETATM    8  O   UNL     1       8.863  -0.884   5.006  1.00  0.00    -0.263 OA
HETATM    9  O   UNL     1       4.403  -2.440   9.387  1.00  0.00    -0.263 OA
HETATM   10  N   UNL     1      11.383  -0.777   6.241  1.00  0.00    -0.340 N 
HETATM   11  N   UNL     1       7.365  -4.095  10.350  1.00  0.00    -0.340 N 
HETATM   12  N   UNL     1       5.491   0.226   7.245  1.00  0.00    -0.340 N 
HETATM   13  C   UNL     1      10.869   0.403   5.516  1.00  0.00     0.190 C 
HETATM   14  C   UNL     1       8.265  -2.924  10.376  1.00  0.00     0.190 C 
HETATM   15  C   UNL     1       5.016  -0.231   8.571  1.00  0.00     0.190 C 
HETATM   16  C   UNL     1      11.246  -2.163   8.317  1.00  0.00     0.227 C 
HETATM   17  C   UNL     1       7.255   1.222   5.752  1.00  0.00     0.227 C 
HETATM   18  C   UNL     1       6.586  -3.579   8.001  1.00  0.00     0.227 C 
HETATM   19  C   UNL     1      11.181  -0.806   7.629  1.00  0.00     0.250 C 
HETATM   20  C   UNL     1       6.470  -4.392   9.309  1.00  0.00     0.250 C 
HETATM   21  C   UNL     1       6.812   0.685   7.118  1.00  0.00     0.250 C 
HETATM   22  C   UNL     1       9.546  -3.263   9.629  1.00  0.00     0.283 C 
HETATM   23  C   UNL     1       9.371   0.168   5.374  1.00  0.00     0.283 C 
HETATM   24  C   UNL     1       5.139  -1.750   8.693  1.00  0.00     0.283 C 
HETATM   25  C   UNL     1      11.935  -1.896   5.475  1.00  0.00     0.153 C 
HETATM   26  C   UNL     1       7.411  -5.010  11.491  1.00  0.00     0.153 C 
HETATM   27  C   UNL     1       4.547   0.092   6.131  1.00  0.00     0.153 C 
ENDROOT
BRANCH  16  28
HETATM   28  C   UNL     1      12.542  -2.311   9.093  1.00  0.00     0.016 C 
HETATM   29  C   UNL     1      12.706  -1.167  10.092  1.00  0.00     0.012 C 
HETATM   30  C   UNL     1      13.736  -2.367   8.142  1.00  0.00     0.012 C 
ENDBRANCH  16  28
BRANCH  14  31
HETATM   31  C   UNL     1       8.597  -2.394  11.770  1.00  0.00     0.014 C 
HETATM   32  C   UNL     1      10.030  -2.781  12.143  1.00  0.00     0.012 C 
BRANCH  31  33
HETATM   33  C   UNL     1       8.425  -0.869  11.873  1.00  0.00     0.002 C 
HETATM   34  C   UNL     1       6.987  -0.404  11.685  1.00  0.00     0.005 C 
ENDBRANCH  31  33
ENDBRANCH  14  31
BRANCH  13  35
HETATM   35  C   UNL     1      11.479   0.679   4.149  1.00  0.00     0.014 C 
HETATM   36  C   UNL     1      10.409   0.527   3.063  1.00  0.00     0.012 C 
BRANCH  35  37
HETATM   37  C   UNL     1      12.115   2.078   4.060  1.00  0.00     0.002 C 
HETATM   38  C   UNL     1      12.184   2.800   5.398  1.00  0.00     0.005 C 
ENDBRANCH  35  37
ENDBRANCH  13  35
BRANCH  18  39
HETATM   39  C   UNL     1       5.780  -4.221   6.870  1.00  0.00     0.016 C 
HETATM   40  C   UNL     1       5.181  -3.149   5.963  1.00  0.00     0.012 C 
HETATM   41  C   UNL     1       6.656  -5.179   6.065  1.00  0.00     0.012 C 
ENDBRANCH  18  39
BRANCH  17  42
HETATM   42  C   UNL     1       6.729   2.636   5.549  1.00  0.00     0.016 C 
HETATM   43  C   UNL     1       5.975   2.747   4.224  1.00  0.00     0.012 C 
HETATM   44  C   UNL     1       7.871   3.650   5.600  1.00  0.00     0.012 C 
ENDBRANCH  17  42
BRANCH  15  45
HETATM   45  C   UNL     1       3.603   0.244   8.907  1.00  0.00     0.014 C 
HETATM   46  C   UNL     1       3.478   0.492  10.414  1.00  0.00     0.012 C 
BRANCH  45  47
HETATM   47  C   UNL     1       3.210   1.521   8.138  1.00  0.00     0.002 C 
HETATM   48  C   UNL     1       1.940   2.175   8.660  1.00  0.00     0.005 C 
ENDBRANCH  45  47
ENDBRANCH  15  45
TORSDOF 9
ENDMDL
MODEL 4
REMARK VINA RESULT:    -7.040      1.942      6.830
REMARK INTER + INTRA:         -10.042
REMARK INTER:                 -10.897
REMARK INTRA:                   0.855
REMARK UNBOUND:                 0.702
REMARK  9 active torsions:
REMARK  status: ('A' for Active; 'I' for Inactive)
REMARK    1  A    between atoms: C_13  and  C_16 
REMARK    2  A    between atoms: C_14  and  C_17 
REMARK    3  A    between atoms: C_15  and  C_18 
REMARK    4  A    between atoms: C_16  and  C_22 
REMARK    5  A    between atoms: C_17  and  C_23 
REMARK    6  A    between atoms: C_18  and  C_24 
REMARK    7  A    between atoms: C_19  and  C_25 
REMARK    8  A    between atoms: C_20  and  C_26 
REMARK    9  A    between atoms: C_21  and  C_27 
ROOT
HETATM    1  O   UNL     1       7.316   0.915   6.156  1.00  0.00    -0.304 OA
HETATM    2  O   UNL     1       7.389  -2.501   9.910  1.00  0.00    -0.304 OA
HETATM    3  O   UNL     1      10.805  -1.049   6.799  1.00  0.00    -0.304 OA
HETATM    4  O   UNL     1       6.013   0.346   8.324  1.00  0.00    -0.270 OA
HETATM    5  O   UNL     1      12.189  -0.118   3.782  1.00  0.00    -0.270 OA
HETATM    6  O   UNL     1       9.030  -0.509   9.384  1.00  0.00    -0.270 OA
HETATM    7  O   UNL     1       7.875   0.886   3.918  1.00  0.00    -0.263 OA
HETATM    8  O   UNL     1       7.420  -3.357   7.766  1.00  0.00    -0.263 OA
HETATM    9  O   UNL     1      12.916  -0.132   6.813  1.00  0.00    -0.263 OA
HETATM   10  N   UNL     1       5.245  -1.626   7.373  1.00  0.00    -0.340 N 
HETATM   11  N   UNL     1      10.539   1.279   4.621  1.00  0.00    -0.340 N 
HETATM   12  N   UNL     1      10.974  -1.776   9.344  1.00  0.00    -0.340 N 
HETATM   13  C   UNL     1       5.392  -2.341   8.657  1.00  0.00     0.190 C 
HETATM   14  C   UNL     1       9.489   1.587   5.614  1.00  0.00     0.190 C 
HETATM   15  C   UNL     1      11.793  -0.618   8.916  1.00  0.00     0.190 C 
HETATM   16  C   UNL     1       6.050   0.255   5.937  1.00  0.00     0.227 C 
HETATM   17  C   UNL     1       8.791  -2.786  10.084  1.00  0.00     0.227 C 
HETATM   18  C   UNL     1      10.697  -1.129   5.375  1.00  0.00     0.227 C 
HETATM   19  C   UNL     1       5.745  -0.317   7.315  1.00  0.00     0.250 C 
HETATM   20  C   UNL     1      11.222   0.055   4.534  1.00  0.00     0.250 C 
HETATM   21  C   UNL     1       9.601  -1.590   9.570  1.00  0.00     0.250 C 
HETATM   22  C   UNL     1       8.149   1.094   5.091  1.00  0.00     0.283 C 
HETATM   23  C   UNL     1       6.842  -2.807   8.695  1.00  0.00     0.283 C 
HETATM   24  C   UNL     1      11.945  -0.600   7.395  1.00  0.00     0.283 C 
HETATM   25  C   UNL     1       4.728  -2.352   6.211  1.00  0.00     0.153 C 
HETATM   26  C   UNL     1      10.890   2.325   3.660  1.00  0.00     0.153 C 
HETATM   27  C   UNL     1      11.663  -3.067   9.429  1.00  0.00     0.153 C 
ENDROOT
BRANCH  16  28
HETATM   28  C   UNL     1       4.995   1.266   5.528  1.00  0.00     0.016 C 
HETATM   29  C   UNL     1       3.859   1.302   6.549  1.00  0.00     0.012 C 
HETATM   30  C   UNL     1       4.453   0.948   4.136  1.00  0.00     0.012 C 
ENDBRANCH  16  28
BRANCH  14  31
HETATM   31  C   UNL     1       9.387   3.058   6.012  1.00  0.00     0.014 C 
HETATM   32  C   UNL     1       8.010   3.604   5.626  1.00  0.00     0.012 C 
BRANCH  31  33
HETATM   33  C   UNL     1       9.632   3.276   7.515  1.00  0.00     0.002 C 
HETATM   34  C   UNL     1      11.008   2.820   7.980  1.00  0.00     0.005 C 
ENDBRANCH  31  33
ENDBRANCH  14  31
BRANCH  13  35
HETATM   35  C   UNL     1       4.464  -3.526   8.886  1.00  0.00     0.014 C 
HETATM   36  C   UNL     1       5.230  -4.659   9.576  1.00  0.00     0.012 C 
BRANCH  35  37
HETATM   37  C   UNL     1       3.226  -3.152   9.719  1.00  0.00     0.002 C 
HETATM   38  C   UNL     1       3.339  -3.546  11.186  1.00  0.00     0.005 C 
ENDBRANCH  35  37
ENDBRANCH  13  35
BRANCH  18  39
HETATM   39  C   UNL     1      11.331  -2.450   4.937  1.00  0.00     0.016 C 
HETATM   40  C   UNL     1      10.436  -3.627   5.319  1.00  0.00     0.012 C 
HETATM   41  C   UNL     1      11.598  -2.445   3.433  1.00  0.00     0.012 C 
ENDBRANCH  18  39
BRANCH  17  42
HETATM   42  C   UNL     1       9.026  -2.976  11.576  1.00  0.00     0.016 C 
HETATM   43  C   UNL     1       9.174  -4.458  11.916  1.00  0.00     0.012 C 
HETATM   44  C   UNL     1       7.889  -2.353  12.386  1.00  0.00     0.012 C 
ENDBRANCH  17  42
BRANCH  15  45
HETATM   45  C   UNL     1      13.149  -0.543   9.615  1.00  0.00     0.014 C 
HETATM   46  C   UNL     1      13.807   0.814   9.337  1.00  0.00     0.012 C 
BRANCH  45  47
HETATM   47  C   UNL     1      13.044  -0.765  11.136  1.00  0.00     0.002 C 
HETATM   48  C   UNL     1      14.219  -1.535  11.719  1.00  0.00     0.005 C 
ENDBRANCH  45  47
ENDBRANCH  15  45
TORSDOF 9
ENDMDL
MODEL 5
REMARK VINA RESULT:    -6.959      1.809      6.307
REMARK INTER + INTRA:          -9.918
REMARK INTER:                 -10.623
REMARK INTRA:                   0.705
REMARK UNBOUND:                 0.702
REMARK  9 active torsions:
REMARK  status: ('A' for Active; 'I' for Inactive)
REMARK    1  A    between atoms: C_13  and  C_16 
REMARK    2  A    between atoms: C_14  and  C_17 
REMARK    3  A    between atoms: C_15  and  C_18 
REMARK    4  A    between atoms: C_16  and  C_22 
REMARK    5  A    between atoms: C_17  and  C_23 
REMARK    6  A    between atoms: C_18  and  C_24 
REMARK    7  A    between atoms: C_19  and  C_25 
REMARK    8  A    between atoms: C_20  and  C_26 
REMARK    9  A    between atoms: C_21  and  C_27 
ROOT
HETATM    1  O   UNL     1      10.682   1.229   9.115  1.00  0.00    -0.304 OA
HETATM    2  O   UNL     1       7.218   0.644   5.450  1.00  0.00    -0.304 OA
HETATM    3  O   UNL     1       7.829  -1.592   9.703  1.00  0.00    -0.304 OA
HETATM    4  O   UNL     1       9.671   2.560   7.133  1.00  0.00    -0.270 OA
HETATM    5  O   UNL     1       9.512  -3.130  12.289  1.00  0.00    -0.270 OA
HETATM    6  O   UNL     1       6.917   0.967   8.048  1.00  0.00    -0.270 OA
HETATM    7  O   UNL     1      12.114  -0.185  10.241  1.00  0.00    -0.263 OA
HETATM    8  O   UNL     1       8.782  -1.044   5.639  1.00  0.00    -0.263 OA
HETATM    9  O   UNL     1       6.679  -1.997  11.654  1.00  0.00    -0.263 OA
HETATM   10  N   UNL     1      10.621   1.078   5.622  1.00  0.00    -0.340 N 
HETATM   11  N   UNL     1      10.019  -0.896  11.929  1.00  0.00    -0.340 N 
HETATM   12  N   UNL     1       5.620  -0.925   8.397  1.00  0.00    -0.340 N 
HETATM   13  C   UNL     1       9.424   1.137   4.760  1.00  0.00     0.190 C 
HETATM   14  C   UNL     1       9.901   0.344  11.133  1.00  0.00     0.190 C 
HETATM   15  C   UNL     1       5.622  -0.731   9.865  1.00  0.00     0.190 C 
HETATM   16  C   UNL     1      11.525   1.290   7.944  1.00  0.00     0.227 C 
HETATM   17  C   UNL     1       6.205  -0.175   6.067  1.00  0.00     0.227 C 
HETATM   18  C   UNL     1       9.011  -2.302  10.087  1.00  0.00     0.227 C 
HETATM   19  C   UNL     1      10.542   1.724   6.864  1.00  0.00     0.250 C 
HETATM   20  C   UNL     1       9.518  -2.148  11.538  1.00  0.00     0.250 C 
HETATM   21  C   UNL     1       6.286   0.008   7.587  1.00  0.00     0.250 C 
HETATM   22  C   UNL     1      11.050   0.408  10.139  1.00  0.00     0.283 C 
HETATM   23  C   UNL     1       8.466   0.098   5.329  1.00  0.00     0.283 C 
HETATM   24  C   UNL     1       6.737  -1.551  10.515  1.00  0.00     0.283 C 
HETATM   25  C   UNL     1      11.753   0.246   5.209  1.00  0.00     0.153 C 
HETATM   26  C   UNL     1      10.707  -0.810  13.217  1.00  0.00     0.153 C 
HETATM   27  C   UNL     1       4.971  -2.142   7.900  1.00  0.00     0.153 C 
ENDROOT
BRANCH  16  28
HETATM   28  C   UNL     1      12.612   2.332   8.131  1.00  0.00     0.016 C 
HETATM   29  C   UNL     1      12.667   3.275   6.932  1.00  0.00     0.012 C 
HETATM   30  C   UNL     1      13.968   1.663   8.349  1.00  0.00     0.012 C 
ENDBRANCH  16  28
BRANCH  14  31
HETATM   31  C   UNL     1       9.842   1.634  11.949  1.00  0.00     0.014 C 
HETATM   32  C   UNL     1      11.010   2.544  11.563  1.00  0.00     0.012 C 
BRANCH  31  33
HETATM   33  C   UNL     1       8.511   2.383  11.763  1.00  0.00     0.002 C 
HETATM   34  C   UNL     1       7.306   1.631  12.308  1.00  0.00     0.005 C 
ENDBRANCH  31  33
ENDBRANCH  14  31
BRANCH  13  35
HETATM   35  C   UNL     1       9.641   0.879   3.276  1.00  0.00     0.014 C 
HETATM   36  C   UNL     1       8.356   1.188   2.502  1.00  0.00     0.012 C 
BRANCH  35  37
HETATM   37  C   UNL     1      10.806   1.702   2.699  1.00  0.00     0.002 C 
HETATM   38  C   UNL     1      10.805   1.776   1.178  1.00  0.00     0.005 C 
ENDBRANCH  35  37
ENDBRANCH  13  35
BRANCH  18  39
HETATM   39  C   UNL     1       8.803  -3.773   9.721  1.00  0.00     0.016 C 
HETATM   40  C   UNL     1       8.155  -3.898   8.345  1.00  0.00     0.012 C 
HETATM   41  C   UNL     1      10.131  -4.528   9.760  1.00  0.00     0.012 C 
ENDBRANCH  18  39
BRANCH  17  42
HETATM   42  C   UNL     1       4.860   0.315   5.551  1.00  0.00     0.016 C 
HETATM   43  C   UNL     1       5.017   0.993   4.190  1.00  0.00     0.012 C 
HETATM   44  C   UNL     1       4.213   1.271   6.552  1.00  0.00     0.012 C 
ENDBRANCH  17  42
BRANCH  15  45
HETATM   45  C   UNL     1       4.269  -1.010  10.517  1.00  0.00     0.014 C 
HETATM   46  C   UNL     1       4.341  -0.719  12.020  1.00  0.00     0.012 C 
BRANCH  45  47
HETATM   47  C   UNL     1       3.128  -0.191   9.884  1.00  0.00     0.002 C 
HETATM   48  C   UNL     1       2.874   1.136  10.583  1.00  0.00     0.005 C 
ENDBRANCH  45  47
ENDBRANCH  15  45
TORSDOF 9
ENDMDL
MODEL 6
REMARK VINA RESULT:    -6.763      1.944      6.841
REMARK INTER + INTRA:          -9.619
REMARK INTER:                 -10.112
REMARK INTRA:                   0.492
REMARK UNBOUND:                 0.702
REMARK  9 active torsions:
REMARK  status: ('A' for Active; 'I' for Inactive)
REMARK    1  A    between atoms: C_13  and  C_16 
REMARK    2  A    between atoms: C_14  and  C_17 
REMARK    3  A    between atoms: C_15  and  C_18 
REMARK    4  A    between atoms: C_16  and  C_22 
REMARK    5  A    between atoms: C_17  and  C_23 
REMARK    6  A    between atoms: C_18  and  C_24 
REMARK    7  A    between atoms: C_19  and  C_25 
REMARK    8  A    between atoms: C_20  and  C_26 
REMARK    9  A    between atoms: C_21  and  C_27 
ROOT
HETATM    1  O   UNL     1       7.253   0.792   6.522  1.00  0.00    -0.304 OA
HETATM    2  O   UNL     1       7.937  -1.574  10.961  1.00  0.00    -0.304 OA
HETATM    3  O   UNL     1      10.948  -0.705   7.268  1.00  0.00    -0.304 OA
HETATM    4  O   UNL     1       6.185   0.689   8.882  1.00  0.00    -0.270 OA
HETATM    5  O   UNL     1      11.996  -0.457   3.992  1.00  0.00    -0.270 OA
HETATM    6  O   UNL     1       9.342   0.335   9.810  1.00  0.00    -0.270 OA
HETATM    7  O   UNL     1       7.632   0.248   4.313  1.00  0.00    -0.263 OA
HETATM    8  O   UNL     1       7.876  -2.930   9.094  1.00  0.00    -0.263 OA
HETATM    9  O   UNL     1      12.960   0.330   6.850  1.00  0.00    -0.263 OA
HETATM   10  N   UNL     1       5.527  -1.505   8.514  1.00  0.00    -0.340 N 
HETATM   11  N   UNL     1      10.297   0.987   4.631  1.00  0.00    -0.340 N 
HETATM   12  N   UNL     1      11.384  -0.765   9.882  1.00  0.00    -0.340 N 
HETATM   13  C   UNL     1       5.841  -1.868   9.911  1.00  0.00     0.190 C 
HETATM   14  C   UNL     1       9.306   1.457   5.621  1.00  0.00     0.190 C 
HETATM   15  C   UNL     1      12.057   0.304   9.109  1.00  0.00     0.190 C 
HETATM   16  C   UNL     1       6.040   0.013   6.595  1.00  0.00     0.227 C 
HETATM   17  C   UNL     1       9.369  -1.709  11.058  1.00  0.00     0.227 C 
HETATM   18  C   UNL     1      10.734  -1.142   5.922  1.00  0.00     0.227 C 
HETATM   19  C   UNL     1       5.898  -0.220   8.094  1.00  0.00     0.250 C 
HETATM   20  C   UNL     1      11.080  -0.170   4.773  1.00  0.00     0.250 C 
HETATM   21  C   UNL     1      10.022  -0.625  10.193  1.00  0.00     0.250 C 
HETATM   22  C   UNL     1       7.979   0.759   5.368  1.00  0.00     0.283 C 
HETATM   23  C   UNL     1       7.325  -2.208   9.915  1.00  0.00     0.283 C 
HETATM   24  C   UNL     1      12.085  -0.045   7.621  1.00  0.00     0.283 C 
HETATM   25  C   UNL     1       4.988  -2.530   7.618  1.00  0.00     0.153 C 
HETATM   26  C   UNL     1      10.473   1.784   3.417  1.00  0.00     0.153 C 
HETATM   27  C   UNL     1      12.193  -1.944  10.206  1.00  0.00     0.153 C 
ENDROOT
BRANCH  16  28
HETATM   28  C   UNL     1       4.867   0.815   6.063  1.00  0.00     0.016 C 
HETATM   29  C   UNL     1       3.845   1.074   7.168  1.00  0.00     0.012 C 
HETATM   30  C   UNL     1       4.211   0.096   4.885  1.00  0.00     0.012 C 
ENDBRANCH  16  28
BRANCH  14  31
HETATM   31  C   UNL     1       9.101   2.971   5.661  1.00  0.00     0.014 C 
HETATM   32  C   UNL     1       7.647   3.305   5.321  1.00  0.00     0.012 C 
BRANCH  31  33
HETATM   33  C   UNL     1       9.470   3.575   7.027  1.00  0.00     0.002 C 
HETATM   34  C   UNL     1      10.870   3.206   7.498  1.00  0.00     0.005 C 
ENDBRANCH  31  33
ENDBRANCH  14  31
BRANCH  13  35
HETATM   35  C   UNL     1       5.046  -3.021  10.509  1.00  0.00     0.014 C 
HETATM   36  C   UNL     1       5.930  -3.812  11.478  1.00  0.00     0.012 C 
BRANCH  35  37
HETATM   37  C   UNL     1       3.775  -2.545  11.234  1.00  0.00     0.002 C 
HETATM   38  C   UNL     1       2.535  -2.544  10.351  1.00  0.00     0.005 C 
ENDBRANCH  35  37
ENDBRANCH  13  35
BRANCH  18  39
HETATM   39  C   UNL     1      11.449  -2.484   5.754  1.00  0.00     0.016 C 
HETATM   40  C   UNL     1      11.671  -3.147   7.112  1.00  0.00     0.012 C 
HETATM   41  C   UNL     1      10.653  -3.404   4.831  1.00  0.00     0.012 C 
ENDBRANCH  18  39
BRANCH  17  42
HETATM   42  C   UNL     1       9.738  -1.506  12.520  1.00  0.00     0.016 C 
HETATM   43  C   UNL     1       9.751  -2.841  13.264  1.00  0.00     0.012 C 
HETATM   44  C   UNL     1       8.772  -0.530  13.191  1.00  0.00     0.012 C 
ENDBRANCH  17  42
BRANCH  15  45
HETATM   45  C   UNL     1      13.452   0.644   9.631  1.00  0.00     0.014 C 
HETATM   46  C   UNL     1      14.514  -0.087   8.803  1.00  0.00     0.012 C 
BRANCH  45  47
HETATM   47  C   UNL     1      13.736   2.159   9.616  1.00  0.00     0.002 C 
HETATM   48  C   UNL     1      15.019   2.527   8.887  1.00  0.00     0.005 C 
ENDBRANCH  45  47
ENDBRANCH  15  45
TORSDOF 9
ENDMDL
MODEL 7
REMARK VINA RESULT:    -6.693      2.259      8.201
REMARK INTER + INTRA:          -9.513
REMARK INTER:                  -9.571
REMARK INTRA:                   0.058
REMARK UNBOUND:                 0.702
REMARK  9 active torsions:
REMARK  status: ('A' for Active; 'I' for Inactive)
REMARK    1  A    between atoms: C_13  and  C_16 
REMARK    2  A    between atoms: C_14  and  C_17 
REMARK    3  A    between atoms: C_15  and  C_18 
REMARK    4  A    between atoms: C_16  and  C_22 
REMARK    5  A    between atoms: C_17  and  C_23 
REMARK    6  A    between atoms: C_18  and  C_24 
REMARK    7  A    between atoms: C_19  and  C_25 
REMARK    8  A    between atoms: C_20  and  C_26 
REMARK    9  A    between atoms: C_21  and  C_27 
ROOT
HETATM    1  O   UNL     1      11.747  -2.600  10.235  1.00  0.00    -0.304 OA
HETATM    2  O   UNL     1       6.886  -4.052  10.069  1.00  0.00    -0.304 OA
HETATM    3  O   UNL     1       9.003   0.237   9.307  1.00  0.00    -0.304 OA
HETATM    4  O   UNL     1      10.349  -4.764   9.947  1.00  0.00    -0.270 OA
HETATM    5  O   UNL     1      11.161   2.873   9.838  1.00  0.00    -0.270 OA
HETATM    6  O   UNL     1       8.327  -2.711   8.319  1.00  0.00    -0.270 OA
HETATM    7  O   UNL     1      12.909  -0.923  11.312  1.00  0.00    -0.263 OA
HETATM    8  O   UNL     1       7.485  -2.737  11.870  1.00  0.00    -0.263 OA
HETATM    9  O   UNL     1       9.183   1.838   7.663  1.00  0.00    -0.263 OA
HETATM   10  N   UNL     1       9.582  -4.587  12.129  1.00  0.00    -0.340 N 
HETATM   11  N   UNL     1      12.144   0.842   9.301  1.00  0.00    -0.340 N 
HETATM   12  N   UNL     1       6.900  -0.889   8.148  1.00  0.00    -0.340 N 
HETATM   13  C   UNL     1       8.238  -5.051  11.730  1.00  0.00     0.190 C 
HETATM   14  C   UNL     1      12.052  -0.610   9.045  1.00  0.00     0.190 C 
HETATM   15  C   UNL     1       7.843  -0.154   7.272  1.00  0.00     0.190 C 
HETATM   16  C   UNL     1      11.680  -3.429  11.415  1.00  0.00     0.227 C 
HETATM   17  C   UNL     1       6.221  -2.942   9.434  1.00  0.00     0.227 C 
HETATM   18  C   UNL     1       9.809   0.929  10.265  1.00  0.00     0.227 C 
HETATM   19  C   UNL     1      10.501  -4.340  11.099  1.00  0.00     0.250 C 
HETATM   20  C   UNL     1      11.087   1.640   9.768  1.00  0.00     0.250 C 
HETATM   21  C   UNL     1       7.246  -2.175   8.590  1.00  0.00     0.250 C 
HETATM   22  C   UNL     1      12.310  -1.362  10.341  1.00  0.00     0.283 C 
HETATM   23  C   UNL     1       7.503  -3.801  11.264  1.00  0.00     0.283 C 
HETATM   24  C   UNL     1       8.718   0.791   8.095  1.00  0.00     0.283 C 
HETATM   25  C   UNL     1       9.836  -4.277  13.538  1.00  0.00     0.153 C 
HETATM   26  C   UNL     1      13.430   1.493   9.050  1.00  0.00     0.153 C 
HETATM   27  C   UNL     1       5.688  -0.169   8.551  1.00  0.00     0.153 C 
ENDROOT
BRANCH  16  28
HETATM   28  C   UNL     1      12.957  -4.235  11.566  1.00  0.00     0.016 C 
HETATM   29  C   UNL     1      12.650  -5.731  11.591  1.00  0.00     0.012 C 
HETATM   30  C   UNL     1      13.710  -3.821  12.829  1.00  0.00     0.012 C 
ENDBRANCH  16  28
BRANCH  14  31
HETATM   31  C   UNL     1      12.973  -1.133   7.945  1.00  0.00     0.014 C 
HETATM   32  C   UNL     1      14.049  -2.034   8.555  1.00  0.00     0.012 C 
BRANCH  31  33
HETATM   33  C   UNL     1      12.206  -1.901   6.854  1.00  0.00     0.002 C 
HETATM   34  C   UNL     1      11.291  -1.018   6.018  1.00  0.00     0.005 C 
ENDBRANCH  31  33
ENDBRANCH  14  31
BRANCH  13  35
HETATM   35  C   UNL     1       7.419  -5.763  12.797  1.00  0.00     0.014 C 
HETATM   36  C   UNL     1       6.123  -4.990  13.058  1.00  0.00     0.012 C 
BRANCH  35  37
HETATM   37  C   UNL     1       7.090  -7.216  12.414  1.00  0.00     0.002 C 
HETATM   38  C   UNL     1       6.106  -7.332  11.257  1.00  0.00     0.005 C 
ENDBRANCH  35  37
ENDBRANCH  13  35
BRANCH  18  39
HETATM   39  C   UNL     1       8.896   1.891  11.028  1.00  0.00     0.016 C 
HETATM   40  C   UNL     1       7.555   1.228  11.334  1.00  0.00     0.012 C 
HETATM   41  C   UNL     1       9.569   2.362  12.316  1.00  0.00     0.012 C 
ENDBRANCH  18  39
BRANCH  17  42
HETATM   42  C   UNL     1       5.137  -3.525   8.539  1.00  0.00     0.016 C 
HETATM   43  C   UNL     1       3.772  -3.446   9.221  1.00  0.00     0.012 C 
HETATM   44  C   UNL     1       5.464  -4.971   8.165  1.00  0.00     0.012 C 
ENDBRANCH  17  42
BRANCH  15  45
HETATM   45  C   UNL     1       7.156   0.578   6.121  1.00  0.00     0.014 C 
HETATM   46  C   UNL     1       8.166   0.860   5.002  1.00  0.00     0.012 C 
BRANCH  45  47
HETATM   47  C   UNL     1       5.958  -0.205   5.551  1.00  0.00     0.002 C 
HETATM   48  C   UNL     1       4.968   0.667   4.795  1.00  0.00     0.005 C 
ENDBRANCH  45  47
ENDBRANCH  15  45
TORSDOF 9
ENDMDL
MODEL 8
REMARK VINA RESULT:    -6.553      1.561      6.620
REMARK INTER + INTRA:          -9.298
REMARK INTER:                 -10.262
REMARK INTRA:                   0.964
REMARK UNBOUND:                 0.702
REMARK  9 active torsions:
REMARK  status: ('A' for Active; 'I' for Inactive)
REMARK    1  A    between atoms: C_13  and  C_16 
REMARK    2  A    between atoms: C_14  and  C_17 
REMARK    3  A    between atoms: C_15  and  C_18 
REMARK    4  A    between atoms: C_16  and  C_22 
REMARK    5  A    between atoms: C_17  and  C_23 
REMARK    6  A    between atoms: C_18  and  C_24 
REMARK    7  A    between atoms: C_19  and  C_25 
REMARK    8  A    between atoms: C_20  and  C_26 
REMARK    9  A    between atoms: C_21  and  C_27 
ROOT
HETATM    1  O   UNL     1       8.134  -1.690  11.389  1.00  0.00    -0.304 OA
HETATM    2  O   UNL     1      11.415   0.468   8.172  1.00  0.00    -0.304 OA
HETATM    3  O   UNL     1       6.992  -1.393   7.510  1.00  0.00    -0.304 OA
HETATM    4  O   UNL     1      10.171  -0.086  11.437  1.00  0.00    -0.270 OA
HETATM    5  O   UNL     1       4.387  -3.627   7.832  1.00  0.00    -0.270 OA
HETATM    6  O   UNL     1       8.858   0.951   8.582  1.00  0.00    -0.270 OA
HETATM    7  O   UNL     1       6.969  -3.680  11.434  1.00  0.00    -0.263 OA
HETATM    8  O   UNL     1      11.155  -1.817   7.967  1.00  0.00    -0.263 OA
HETATM    9  O   UNL     1       4.921  -0.760   6.732  1.00  0.00    -0.263 OA
HETATM   10  N   UNL     1      11.569  -1.804  10.744  1.00  0.00    -0.340 N 
HETATM   11  N   UNL     1       5.046  -2.542   9.773  1.00  0.00    -0.340 N 
HETATM   12  N   UNL     1       8.186   0.687   6.376  1.00  0.00    -0.340 N 
HETATM   13  C   UNL     1      12.333  -0.879   9.883  1.00  0.00     0.190 C 
HETATM   14  C   UNL     1       5.970  -1.651  10.505  1.00  0.00     0.190 C 
HETATM   15  C   UNL     1       6.755   0.838   6.729  1.00  0.00     0.190 C 
HETATM   16  C   UNL     1       9.368  -2.304  11.820  1.00  0.00     0.227 C 
HETATM   17  C   UNL     1      10.627   0.701   6.988  1.00  0.00     0.227 C 
HETATM   18  C   UNL     1       6.623  -2.742   7.808  1.00  0.00     0.227 C 
HETATM   19  C   UNL     1      10.409  -1.297  11.348  1.00  0.00     0.250 C 
HETATM   20  C   UNL     1       5.247  -2.997   8.460  1.00  0.00     0.250 C 
HETATM   21  C   UNL     1       9.150   0.787   7.391  1.00  0.00     0.250 C 
HETATM   22  C   UNL     1       7.053  -2.490  11.164  1.00  0.00     0.283 C 
HETATM   23  C   UNL     1      11.571  -0.833   8.565  1.00  0.00     0.283 C 
HETATM   24  C   UNL     1       6.105  -0.530   6.940  1.00  0.00     0.283 C 
HETATM   25  C   UNL     1      11.972  -3.210  10.808  1.00  0.00     0.153 C 
HETATM   26  C   UNL     1       3.836  -2.982  10.469  1.00  0.00     0.153 C 
HETATM   27  C   UNL     1       8.482   0.365   4.977  1.00  0.00     0.153 C 
ENDROOT
BRANCH  16  28
HETATM   28  C   UNL     1       9.392  -2.432  13.332  1.00  0.00     0.016 C 
HETATM   29  C   UNL     1      10.509  -1.578  13.928  1.00  0.00     0.012 C 
HETATM   30  C   UNL     1       9.557  -3.893  13.747  1.00  0.00     0.012 C 
ENDBRANCH  16  28
BRANCH  14  31
HETATM   31  C   UNL     1       5.309  -0.743  11.540  1.00  0.00     0.014 C 
HETATM   32  C   UNL     1       5.820  -1.095  12.939  1.00  0.00     0.012 C 
BRANCH  31  33
HETATM   33  C   UNL     1       5.557   0.748  11.254  1.00  0.00     0.002 C 
HETATM   34  C   UNL     1       6.656   1.358  12.112  1.00  0.00     0.005 C 
ENDBRANCH  31  33
ENDBRANCH  14  31
BRANCH  13  35
HETATM   35  C   UNL     1      13.790  -1.237   9.624  1.00  0.00     0.014 C 
HETATM   36  C   UNL     1      14.330  -0.403   8.459  1.00  0.00     0.012 C 
BRANCH  35  37
HETATM   37  C   UNL     1      14.676  -1.033  10.865  1.00  0.00     0.002 C 
HETATM   38  C   UNL     1      16.112  -0.653  10.531  1.00  0.00     0.005 C 
ENDBRANCH  35  37
ENDBRANCH  13  35
BRANCH  18  39
HETATM   39  C   UNL     1       6.796  -3.562   6.528  1.00  0.00     0.016 C 
HETATM   40  C   UNL     1       8.226  -3.446   6.006  1.00  0.00     0.012 C 
HETATM   41  C   UNL     1       6.431  -5.024   6.774  1.00  0.00     0.012 C 
ENDBRANCH  18  39
BRANCH  17  42
HETATM   42  C   UNL     1      11.087   2.027   6.399  1.00  0.00     0.016 C 
HETATM   43  C   UNL     1      11.900   1.799   5.125  1.00  0.00     0.012 C 
HETATM   44  C   UNL     1      11.905   2.816   7.420  1.00  0.00     0.012 C 
ENDBRANCH  17  42
BRANCH  15  45
HETATM   45  C   UNL     1       5.969   1.683   5.728  1.00  0.00     0.014 C 
HETATM   46  C   UNL     1       6.777   2.928   5.345  1.00  0.00     0.012 C 
BRANCH  45  47
HETATM   47  C   UNL     1       5.594   0.897   4.457  1.00  0.00     0.002 C 
HETATM   48  C   UNL     1       4.217   1.246   3.914  1.00  0.00     0.005 C 
ENDBRANCH  45  47
ENDBRANCH  15  45
TORSDOF 9
ENDMDL
MODEL 9
REMARK VINA RESULT:    -6.551      1.742      6.595
REMARK INTER + INTRA:          -9.295
REMARK INTER:                 -10.029
REMARK INTRA:                   0.734
REMARK UNBOUND:                 0.702
REMARK  9 active torsions:
REMARK  status: ('A' for Active; 'I' for Inactive)
REMARK    1  A    between atoms: C_13  and  C_16 
REMARK    2  A    between atoms: C_14  and  C_17 
REMARK    3  A    between atoms: C_15  and  C_18 
REMARK    4  A    between atoms: C_16  and  C_22 
REMARK    5  A    between atoms: C_17  and  C_23 
REMARK    6  A    between atoms: C_18  and  C_24 
REMARK    7  A    between atoms: C_19  and  C_25 
REMARK    8  A    between atoms: C_20  and  C_26 
REMARK    9  A    between atoms: C_21  and  C_27 
ROOT
HETATM    1  O   UNL     1       8.859  -2.403  10.811  1.00  0.00    -0.304 OA
HETATM    2  O   UNL     1      11.969   0.537   8.080  1.00  0.00    -0.304 OA
HETATM    3  O   UNL     1       7.919  -1.847   6.905  1.00  0.00    -0.304 OA
HETATM    4  O   UNL     1      10.628  -0.542  11.171  1.00  0.00    -0.270 OA
HETATM    5  O   UNL     1       5.660  -4.450   6.807  1.00  0.00    -0.270 OA
HETATM    6  O   UNL     1       9.348   0.606   8.343  1.00  0.00    -0.270 OA
HETATM    7  O   UNL     1       8.002  -4.530  10.569  1.00  0.00    -0.263 OA
HETATM    8  O   UNL     1      12.065  -1.725   7.629  1.00  0.00    -0.263 OA
HETATM    9  O   UNL     1       5.827  -1.433   6.041  1.00  0.00    -0.263 OA
HETATM   10  N   UNL     1      12.305  -1.958  10.417  1.00  0.00    -0.340 N 
HETATM   11  N   UNL     1       6.034  -3.502   8.891  1.00  0.00    -0.340 N 
HETATM   12  N   UNL     1       8.856   0.491   6.078  1.00  0.00    -0.340 N 
HETATM   13  C   UNL     1      12.973  -0.845   9.712  1.00  0.00     0.190 C 
HETATM   14  C   UNL     1       6.770  -2.574   9.775  1.00  0.00     0.190 C 
HETATM   15  C   UNL     1       7.400   0.399   6.336  1.00  0.00     0.190 C 
HETATM   16  C   UNL     1      10.143  -2.879  11.269  1.00  0.00     0.227 C 
HETATM   17  C   UNL     1      11.227   0.784   6.869  1.00  0.00     0.227 C 
HETATM   18  C   UNL     1       7.738  -3.260   7.040  1.00  0.00     0.227 C 
HETATM   19  C   UNL     1      11.048  -1.690  10.979  1.00  0.00     0.250 C 
HETATM   20  C   UNL     1       6.378  -3.777   7.557  1.00  0.00     0.250 C 
HETATM   21  C   UNL     1       9.733   0.615   7.167  1.00  0.00     0.250 C 
HETATM   22  C   UNL     1       7.925  -3.319  10.427  1.00  0.00     0.283 C 
HETATM   23  C   UNL     1      12.292  -0.764   8.352  1.00  0.00     0.283 C 
HETATM   24  C   UNL     1       6.949  -1.062   6.360  1.00  0.00     0.283 C 
HETATM   25  C   UNL     1      12.908  -3.291  10.370  1.00  0.00     0.153 C 
HETATM   26  C   UNL     1       4.864  -4.182   9.447  1.00  0.00     0.153 C 
HETATM   27  C   UNL     1       9.280   0.370   4.679  1.00  0.00     0.153 C 
ENDROOT
BRANCH  16  28
HETATM   28  C   UNL     1      10.095  -3.168  12.759  1.00  0.00     0.016 C 
HETATM   29  C   UNL     1      11.092  -2.288  13.510  1.00  0.00     0.012 C 
HETATM   30  C   UNL     1      10.373  -4.645  13.031  1.00  0.00     0.012 C 
ENDBRANCH  16  28
BRANCH  14  31
HETATM   31  C   UNL     1       5.921  -1.888  10.843  1.00  0.00     0.014 C 
HETATM   32  C   UNL     1       6.532  -2.131  12.225  1.00  0.00     0.012 C 
BRANCH  31  33
HETATM   33  C   UNL     1       5.777  -0.376  10.594  1.00  0.00     0.002 C 
HETATM   34  C   UNL     1       4.930  -0.038   9.376  1.00  0.00     0.005 C 
ENDBRANCH  31  33
ENDBRANCH  14  31
BRANCH  13  35
HETATM   35  C   UNL     1      14.480  -0.964   9.528  1.00  0.00     0.014 C 
HETATM   36  C   UNL     1      14.975   0.136   8.585  1.00  0.00     0.012 C 
BRANCH  35  37
HETATM   37  C   UNL     1      15.243  -0.887  10.862  1.00  0.00     0.002 C 
HETATM   38  C   UNL     1      16.700  -0.473  10.706  1.00  0.00     0.005 C 
ENDBRANCH  35  37
ENDBRANCH  13  35
BRANCH  18  39
HETATM   39  C   UNL     1       8.107  -3.901   5.700  1.00  0.00     0.016 C 
HETATM   40  C   UNL     1       9.584  -3.678   5.387  1.00  0.00     0.012 C 
HETATM   41  C   UNL     1       7.780  -5.394   5.713  1.00  0.00     0.012 C 
ENDBRANCH  18  39
BRANCH  17  42
HETATM   42  C   UNL     1      11.520   2.218   6.451  1.00  0.00     0.016 C 
HETATM   43  C   UNL     1      12.352   2.249   5.170  1.00  0.00     0.012 C 
HETATM   44  C   UNL     1      12.235   2.972   7.572  1.00  0.00     0.012 C 
ENDBRANCH  17  42
BRANCH  15  45
HETATM   45  C   UNL     1       6.559   1.229   5.368  1.00  0.00     0.014 C 
HETATM   46  C   UNL     1       5.159   1.454   5.951  1.00  0.00     0.012 C 
BRANCH  45  47
HETATM   47  C   UNL     1       7.205   2.587   5.035  1.00  0.00     0.002 C 
HETATM   48  C   UNL     1       7.263   2.882   3.544  1.00  0.00     0.005 C 
ENDBRANCH  45  47
ENDBRANCH  15  45
TORSDOF 9
ENDMDL
MODEL 10
REMARK VINA RESULT:    -6.544      2.266      6.861
REMARK INTER + INTRA:          -9.285
REMARK INTER:                 -10.647
REMARK INTRA:                   1.362
REMARK UNBOUND:                 0.702
REMARK  9 active torsions:
REMARK  status: ('A' for Active; 'I' for Inactive)
REMARK    1  A    between atoms: C_13  and  C_16 
REMARK    2  A    between atoms: C_14  and  C_17 
REMARK    3  A    between atoms: C_15  and  C_18 
REMARK    4  A    between atoms: C_16  and  C_22 
REMARK    5  A    between atoms: C_17  and  C_23 
REMARK    6  A    between atoms: C_18  and  C_24 
REMARK    7  A    between atoms: C_19  and  C_25 
REMARK    8  A    between atoms: C_20  and  C_26 
REMARK    9  A    between atoms: C_21  and  C_27 
ROOT
HETATM    1  O   UNL     1       7.270   0.232   7.250  1.00  0.00    -0.304 OA
HETATM    2  O   UNL     1       9.330  -0.225  11.867  1.00  0.00    -0.304 OA
HETATM    3  O   UNL     1      11.319   0.281   7.480  1.00  0.00    -0.304 OA
HETATM    4  O   UNL     1       6.622   0.578   9.737  1.00  0.00    -0.270 OA
HETATM    5  O   UNL     1      11.778  -0.240   4.103  1.00  0.00    -0.270 OA
HETATM    6  O   UNL     1       9.781   1.540   9.965  1.00  0.00    -0.270 OA
HETATM    7  O   UNL     1       7.538  -0.856   5.234  1.00  0.00    -0.263 OA
HETATM    8  O   UNL     1       9.532  -2.064  10.486  1.00  0.00    -0.263 OA
HETATM    9  O   UNL     1      12.742   1.692   6.351  1.00  0.00    -0.263 OA
HETATM   10  N   UNL     1       6.772  -1.706  10.117  1.00  0.00    -0.340 N 
HETATM   11  N   UNL     1       9.765   0.733   4.720  1.00  0.00    -0.340 N 
HETATM   12  N   UNL     1      12.075   1.213   9.844  1.00  0.00    -0.340 N 
HETATM   13  C   UNL     1       7.371  -1.479  11.448  1.00  0.00     0.190 C 
HETATM   14  C   UNL     1       8.805   1.169   5.755  1.00  0.00     0.190 C 
HETATM   15  C   UNL     1      12.207   2.125   8.684  1.00  0.00     0.190 C 
HETATM   16  C   UNL     1       6.445  -0.816   7.804  1.00  0.00     0.227 C 
HETATM   17  C   UNL     1      10.712   0.128  11.660  1.00  0.00     0.227 C 
HETATM   18  C   UNL     1      11.110  -0.614   6.383  1.00  0.00     0.227 C 
HETATM   19  C   UNL     1       6.591  -0.580   9.302  1.00  0.00     0.250 C 
HETATM   20  C   UNL     1      10.928  -0.012   4.973  1.00  0.00     0.250 C 
HETATM   21  C   UNL     1      10.808   1.018  10.415  1.00  0.00     0.250 C 
HETATM   22  C   UNL     1       7.805   0.051   6.009  1.00  0.00     0.283 C 
HETATM   23  C   UNL     1       8.865  -1.322  11.195  1.00  0.00     0.283 C 
HETATM   24  C   UNL     1      12.171   1.338   7.374  1.00  0.00     0.283 C 
HETATM   25  C   UNL     1       6.535  -3.080   9.671  1.00  0.00     0.153 C 
HETATM   26  C   UNL     1       9.481   1.104   3.334  1.00  0.00     0.153 C 
HETATM   27  C   UNL     1      13.293   0.515  10.267  1.00  0.00     0.153 C 
ENDROOT
BRANCH  16  28
HETATM   28  C   UNL     1       5.003  -0.635   7.369  1.00  0.00     0.016 C 
HETATM   29  C   UNL     1       4.664  -1.584   6.221  1.00  0.00     0.012 C 
HETATM   30  C   UNL     1       4.740   0.814   6.961  1.00  0.00     0.012 C 
ENDBRANCH  16  28
BRANCH  14  31
HETATM   31  C   UNL     1       8.068   2.470   5.446  1.00  0.00     0.014 C 
HETATM   32  C   UNL     1       9.038   3.650   5.544  1.00  0.00     0.012 C 
BRANCH  31  33
HETATM   33  C   UNL     1       7.406   2.453   4.057  1.00  0.00     0.002 C 
HETATM   34  C   UNL     1       5.889   2.568   4.104  1.00  0.00     0.005 C 
ENDBRANCH  31  33
ENDBRANCH  14  31
BRANCH  13  35
HETATM   35  C   UNL     1       7.136  -2.560  12.494  1.00  0.00     0.014 C 
HETATM   36  C   UNL     1       8.172  -2.432  13.614  1.00  0.00     0.012 C 
BRANCH  35  37
HETATM   37  C   UNL     1       5.718  -2.504  13.088  1.00  0.00     0.002 C 
HETATM   38  C   UNL     1       5.241  -1.091  13.394  1.00  0.00     0.005 C 
ENDBRANCH  35  37
ENDBRANCH  13  35
BRANCH  18  39
HETATM   39  C   UNL     1      12.239  -1.646   6.409  1.00  0.00     0.016 C 
HETATM   40  C   UNL     1      12.757  -1.839   7.833  1.00  0.00     0.012 C 
HETATM   41  C   UNL     1      11.764  -2.975   5.826  1.00  0.00     0.012 C 
ENDBRANCH  18  39
BRANCH  17  42
HETATM   42  C   UNL     1      11.164   0.900  12.892  1.00  0.00     0.016 C 
HETATM   43  C   UNL     1      12.128   0.062  13.731  1.00  0.00     0.012 C 
HETATM   44  C   UNL     1       9.962   1.332  13.731  1.00  0.00     0.012 C 
ENDBRANCH  17  42
BRANCH  15  45
HETATM   45  C   UNL     1      13.434   3.030   8.760  1.00  0.00     0.014 C 
HETATM   46  C   UNL     1      13.390   3.867  10.044  1.00  0.00     0.012 C 
BRANCH  45  47
HETATM   47  C   UNL     1      14.756   2.241   8.702  1.00  0.00     0.002 C 
HETATM   48  C   UNL     1      15.986   3.098   8.962  1.00  0.00     0.005 C 
ENDBRANCH  45  47
ENDBRANCH  15  45
TORSDOF 9
ENDMDL
MODEL 11
REMARK VINA RESULT:    -6.539      1.658      2.207
REMARK INTER + INTRA:          -9.278
REMARK INTER:                  -9.539
REMARK INTRA:                   0.261
REMARK UNBOUND:                 0.702
REMARK  9 active torsions:
REMARK  status: ('A' for Active; 'I' for Inactive)
REMARK    1  A    between atoms: C_13  and  C_16 
REMARK    2  A    between atoms: C_14  and  C_17 
REMARK    3  A    between atoms: C_15  and  C_18 
REMARK    4  A    between atoms: C_16  and  C_22 
REMARK    5  A    between atoms: C_17  and  C_23 
REMARK    6  A    between atoms: C_18  and  C_24 
REMARK    7  A    between atoms: C_19  and  C_25 
REMARK    8  A    between atoms: C_20  and  C_26 
REMARK    9  A    between atoms: C_21  and  C_27 
ROOT
HETATM    1  O   UNL     1       5.848  -1.193   7.974  1.00  0.00    -0.304 OA
HETATM    2  O   UNL     1      10.687   0.215   7.369  1.00  0.00    -0.304 OA
HETATM    3  O   UNL     1       8.024  -0.567  11.339  1.00  0.00    -0.304 OA
HETATM    4  O   UNL     1       7.716  -1.292   6.180  1.00  0.00    -0.270 OA
HETATM    5  O   UNL     1       5.272  -0.449  13.412  1.00  0.00    -0.270 OA
HETATM    6  O   UNL     1       9.639  -1.701   8.843  1.00  0.00    -0.270 OA
HETATM    7  O   UNL     1       4.047  -0.364   9.154  1.00  0.00    -0.263 OA
HETATM    8  O   UNL     1       9.246   1.855   8.119  1.00  0.00    -0.263 OA
HETATM    9  O   UNL     1       8.036  -1.877  13.230  1.00  0.00    -0.263 OA
HETATM   10  N   UNL     1       7.659   1.017   5.959  1.00  0.00    -0.340 N 
HETATM   11  N   UNL     1       5.009  -1.634  11.435  1.00  0.00    -0.340 N 
HETATM   12  N   UNL     1      10.588  -1.034  10.852  1.00  0.00    -0.340 N 
HETATM   13  C   UNL     1       9.128   1.072   5.815  1.00  0.00     0.190 C 
HETATM   14  C   UNL     1       5.509  -2.071  10.115  1.00  0.00     0.190 C 
HETATM   15  C   UNL     1       9.846  -2.064  11.616  1.00  0.00     0.190 C 
HETATM   16  C   UNL     1       5.710  -0.223   6.914  1.00  0.00     0.227 C 
HETATM   17  C   UNL     1      11.254   0.059   8.686  1.00  0.00     0.227 C 
HETATM   18  C   UNL     1       6.812   0.124  11.655  1.00  0.00     0.227 C 
HETATM   19  C   UNL     1       7.101  -0.225   6.294  1.00  0.00     0.250 C 
HETATM   20  C   UNL     1       5.643  -0.687  12.256  1.00  0.00     0.250 C 
HETATM   21  C   UNL     1      10.418  -0.966   9.461  1.00  0.00     0.250 C 
HETATM   22  C   UNL     1       5.016  -1.102   9.051  1.00  0.00     0.283 C 
HETATM   23  C   UNL     1       9.672   1.121   7.237  1.00  0.00     0.283 C 
HETATM   24  C   UNL     1       8.558  -1.480  12.197  1.00  0.00     0.283 C 
HETATM   25  C   UNL     1       6.892   2.262   5.890  1.00  0.00     0.153 C 
HETATM   26  C   UNL     1       3.766  -2.233  11.920  1.00  0.00     0.153 C 
HETATM   27  C   UNL     1      11.402  -0.101  11.636  1.00  0.00     0.153 C 
ENDROOT
BRANCH  16  28
HETATM   28  C   UNL     1       4.673  -0.688   5.908  1.00  0.00     0.016 C 
HETATM   29  C   UNL     1       4.906  -2.150   5.530  1.00  0.00     0.012 C 
HETATM   30  C   UNL     1       4.695   0.196   4.662  1.00  0.00     0.012 C 
ENDBRANCH  16  28
BRANCH  14  31
HETATM   31  C   UNL     1       5.145  -3.503   9.727  1.00  0.00     0.014 C 
HETATM   32  C   UNL     1       3.985  -3.490   8.730  1.00  0.00     0.012 C 
BRANCH  31  33
HETATM   33  C   UNL     1       6.339  -4.268   9.130  1.00  0.00     0.002 C 
HETATM   34  C   UNL     1       7.518  -4.398  10.084  1.00  0.00     0.005 C 
ENDBRANCH  31  33
ENDBRANCH  14  31
BRANCH  13  35
HETATM   35  C   UNL     1       9.689   2.235   5.008  1.00  0.00     0.014 C 
HETATM   36  C   UNL     1      11.137   2.506   5.428  1.00  0.00     0.012 C 
BRANCH  35  37
HETATM   37  C   UNL     1       9.625   1.985   3.492  1.00  0.00     0.002 C 
HETATM   38  C   UNL     1      10.994   1.834   2.841  1.00  0.00     0.005 C 
ENDBRANCH  35  37
ENDBRANCH  13  35
BRANCH  18  39
HETATM   39  C   UNL     1       7.179   1.316  12.542  1.00  0.00     0.016 C 
HETATM   40  C   UNL     1       8.345   2.095  11.937  1.00  0.00     0.012 C 
HETATM   41  C   UNL     1       5.970   2.228  12.742  1.00  0.00     0.012 C 
ENDBRANCH  18  39
BRANCH  17  42
HETATM   42  C   UNL     1      12.675  -0.454   8.502  1.00  0.00     0.016 C 
HETATM   43  C   UNL     1      13.617   0.687   8.119  1.00  0.00     0.012 C 
HETATM   44  C   UNL     1      12.718  -1.559   7.447  1.00  0.00     0.012 C 
ENDBRANCH  17  42
BRANCH  15  45
HETATM   45  C   UNL     1      10.688  -2.745  12.693  1.00  0.00     0.014 C 
HETATM   46  C   UNL     1       9.993  -4.024  13.171  1.00  0.00     0.012 C 
BRANCH  45  47
HETATM   47  C   UNL     1      12.112  -3.079  12.209  1.00  0.00     0.002 C 
HETATM   48  C   UNL     1      13.159  -3.008  13.310  1.00  0.00     0.005 C 
ENDBRANCH  45  47
ENDBRANCH  15  45
TORSDOF 9
ENDMDL
MODEL 12
REMARK VINA RESULT:    -6.458      2.419      6.115
REMARK INTER + INTRA:          -9.154
REMARK INTER:                 -10.211
REMARK INTRA:                   1.057
REMARK UNBOUND:                 0.702
REMARK  9 active torsions:
REMARK  status: ('A' for Active; 'I' for Inactive)
REMARK    1  A    between atoms: C_13  and  C_16 
REMARK    2  A    between atoms: C_14  and  C_17 
REMARK    3  A    between atoms: C_15  and  C_18 
REMARK    4  A    between atoms: C_16  and  C_22 
REMARK    5  A    between atoms: C_17  and  C_23 
REMARK    6  A    between atoms: C_18  and  C_24 
REMARK    7  A    between atoms: C_19  and  C_25 
REMARK    8  A    between atoms: C_20  and  C_26 
REMARK    9  A    between atoms: C_21  and  C_27 
ROOT
HETATM    1  O   UNL     1       6.575   0.280  12.450  1.00  0.00    -0.304 OA
HETATM    2  O   UNL     1       9.893   1.240   8.730  1.00  0.00    -0.304 OA
HETATM    3  O   UNL     1       6.777  -2.404   9.417  1.00  0.00    -0.304 OA
HETATM    4  O   UNL     1       7.862   2.287  11.430  1.00  0.00    -0.270 OA
HETATM    5  O   UNL     1       5.059  -4.857  11.124  1.00  0.00    -0.270 OA
HETATM    6  O   UNL     1       7.334   0.625   8.618  1.00  0.00    -0.270 OA
HETATM    7  O   UNL     1       6.151  -1.520  13.828  1.00  0.00    -0.263 OA
HETATM    8  O   UNL     1      10.451  -0.486  10.159  1.00  0.00    -0.263 OA
HETATM    9  O   UNL     1       5.003  -3.419   8.360  1.00  0.00    -0.263 OA
HETATM   10  N   UNL     1       9.876   1.397  12.161  1.00  0.00    -0.340 N 
HETATM   11  N   UNL     1       4.648  -2.674  11.789  1.00  0.00    -0.340 N 
HETATM   12  N   UNL     1       7.565  -1.192   7.194  1.00  0.00    -0.340 N 
HETATM   13  C   UNL     1      10.554   1.826  10.922  1.00  0.00     0.190 C 
HETATM   14  C   UNL     1       4.941  -1.227  11.725  1.00  0.00     0.190 C 
HETATM   15  C   UNL     1       6.129  -1.539   7.302  1.00  0.00     0.190 C 
HETATM   16  C   UNL     1       7.718   0.711  13.220  1.00  0.00     0.227 C 
HETATM   17  C   UNL     1       9.521   0.311   7.693  1.00  0.00     0.227 C 
HETATM   18  C   UNL     1       6.773  -3.268  10.557  1.00  0.00     0.227 C 
HETATM   19  C   UNL     1       8.484   1.557  12.212  1.00  0.00     0.250 C 
HETATM   20  C   UNL     1       5.412  -3.672  11.164  1.00  0.00     0.250 C 
HETATM   21  C   UNL     1       8.047  -0.069   7.882  1.00  0.00     0.250 C 
HETATM   22  C   UNL     1       5.944  -0.873  12.812  1.00  0.00     0.283 C 
HETATM   23  C   UNL     1      10.308   0.707   9.919  1.00  0.00     0.283 C 
HETATM   24  C   UNL     1       5.911  -2.597   8.384  1.00  0.00     0.283 C 
HETATM   25  C   UNL     1      10.654   0.708  13.193  1.00  0.00     0.153 C 
HETATM   26  C   UNL     1       3.478  -3.094  12.561  1.00  0.00     0.153 C 
HETATM   27  C   UNL     1       8.402  -2.113   6.417  1.00  0.00     0.153 C 
ENDROOT
BRANCH  16  28
HETATM   28  C   UNL     1       7.269   1.555  14.399  1.00  0.00     0.016 C 
HETATM   29  C   UNL     1       6.111   2.468  13.999  1.00  0.00     0.012 C 
HETATM   30  C   UNL     1       8.433   2.378  14.948  1.00  0.00     0.012 C 
ENDBRANCH  16  28
BRANCH  14  31
HETATM   31  C   UNL     1       3.720  -0.315  11.822  1.00  0.00     0.014 C 
HETATM   32  C   UNL     1       3.621   0.269  13.234  1.00  0.00     0.012 C 
BRANCH  31  33
HETATM   33  C   UNL     1       3.756   0.824  10.788  1.00  0.00     0.002 C 
HETATM   34  C   UNL     1       3.737   0.338   9.346  1.00  0.00     0.005 C 
ENDBRANCH  31  33
ENDBRANCH  14  31
BRANCH  13  35
HETATM   35  C   UNL     1      12.047   2.107  11.025  1.00  0.00     0.014 C 
HETATM   36  C   UNL     1      12.812   1.203  10.054  1.00  0.00     0.012 C 
BRANCH  35  37
HETATM   37  C   UNL     1      12.389   3.581  10.744  1.00  0.00     0.002 C 
HETATM   38  C   UNL     1      13.477   3.763   9.693  1.00  0.00     0.005 C 
ENDBRANCH  35  37
ENDBRANCH  13  35
BRANCH  18  39
HETATM   39  C   UNL     1       7.616  -4.496  10.208  1.00  0.00     0.016 C 
HETATM   40  C   UNL     1       8.850  -4.089   9.405  1.00  0.00     0.012 C 
HETATM   41  C   UNL     1       8.023  -5.246  11.475  1.00  0.00     0.012 C 
ENDBRANCH  18  39
BRANCH  17  42
HETATM   42  C   UNL     1       9.711   1.026   6.363  1.00  0.00     0.016 C 
HETATM   43  C   UNL     1      11.059   0.663   5.743  1.00  0.00     0.012 C 
HETATM   44  C   UNL     1       9.595   2.539   6.542  1.00  0.00     0.012 C 
ENDBRANCH  17  42
BRANCH  15  45
HETATM   45  C   UNL     1       5.504  -1.959   5.973  1.00  0.00     0.014 C 
HETATM   46  C   UNL     1       4.658  -3.223   6.169  1.00  0.00     0.012 C 
BRANCH  45  47
HETATM   47  C   UNL     1       4.638  -0.848   5.349  1.00  0.00     0.002 C 
HETATM   48  C   UNL     1       5.352   0.490   5.243  1.00  0.00     0.005 C 
ENDBRANCH  45  47
ENDBRANCH  15  45
TORSDOF 9
ENDMDL
MODEL 13
REMARK VINA RESULT:    -6.401      2.045      6.338
REMARK INTER + INTRA:          -9.067
REMARK INTER:                 -10.114
REMARK INTRA:                   1.047
REMARK UNBOUND:                 0.702
REMARK  9 active torsions:
REMARK  status: ('A' for Active; 'I' for Inactive)
REMARK    1  A    between atoms: C_13  and  C_16 
REMARK    2  A    between atoms: C_14  and  C_17 
REMARK    3  A    between atoms: C_15  and  C_18 
REMARK    4  A    between atoms: C_16  and  C_22 
REMARK    5  A    between atoms: C_17  and  C_23 
REMARK    6  A    between atoms: C_18  and  C_24 
REMARK    7  A    between atoms: C_19  and  C_25 
REMARK    8  A    between atoms: C_20  and  C_26 
REMARK    9  A    between atoms: C_21  and  C_27 
ROOT
HETATM    1  O   UNL     1       8.352   0.748  11.963  1.00  0.00    -0.304 OA
HETATM    2  O   UNL     1      11.149   1.439   7.783  1.00  0.00    -0.304 OA
HETATM    3  O   UNL     1       7.167  -1.193   8.606  1.00  0.00    -0.304 OA
HETATM    4  O   UNL     1      10.041   2.455  10.985  1.00  0.00    -0.270 OA
HETATM    5  O   UNL     1       5.042  -3.332  10.278  1.00  0.00    -0.270 OA
HETATM    6  O   UNL     1       8.547   1.637   8.148  1.00  0.00    -0.270 OA
HETATM    7  O   UNL     1       7.592  -1.092  13.127  1.00  0.00    -0.263 OA
HETATM    8  O   UNL     1      11.334  -0.630   8.791  1.00  0.00    -0.263 OA
HETATM    9  O   UNL     1       5.011  -1.404   7.829  1.00  0.00    -0.263 OA
HETATM   10  N   UNL     1      11.743   0.884  11.120  1.00  0.00    -0.340 N 
HETATM   11  N   UNL     1       5.483  -1.310  11.324  1.00  0.00    -0.340 N 
HETATM   12  N   UNL     1       7.935   0.165   6.462  1.00  0.00    -0.340 N 
HETATM   13  C   UNL     1      12.312   1.342   9.837  1.00  0.00     0.190 C 
HETATM   14  C   UNL     1       6.220  -0.031  11.405  1.00  0.00     0.190 C 
HETATM   15  C   UNL     1       6.502   0.239   6.832  1.00  0.00     0.190 C 
HETATM   16  C   UNL     1       9.682   0.658  12.517  1.00  0.00     0.227 C 
HETATM   17  C   UNL     1      10.328   0.893   6.730  1.00  0.00     0.227 C 
HETATM   18  C   UNL     1       7.066  -2.234   9.583  1.00  0.00     0.227 C 
HETATM   19  C   UNL     1      10.508   1.431  11.497  1.00  0.00     0.250 C 
HETATM   20  C   UNL     1       5.765  -2.337  10.409  1.00  0.00     0.250 C 
HETATM   21  C   UNL     1       8.863   0.931   7.182  1.00  0.00     0.250 C 
HETATM   22  C   UNL     1       7.446  -0.218  12.285  1.00  0.00     0.283 C 
HETATM   23  C   UNL     1      11.553   0.574   8.762  1.00  0.00     0.283 C 
HETATM   24  C   UNL     1       6.129  -0.908   7.771  1.00  0.00     0.283 C 
HETATM   25  C   UNL     1      12.409  -0.199  11.846  1.00  0.00     0.153 C 
HETATM   26  C   UNL     1       4.383  -1.518  12.265  1.00  0.00     0.153 C 
HETATM   27  C   UNL     1       8.285  -0.780   5.396  1.00  0.00     0.153 C 
ENDROOT
BRANCH  16  28
HETATM   28  C   UNL     1       9.733   1.335  13.875  1.00  0.00     0.016 C 
HETATM   29  C   UNL     1       9.886   0.300  14.988  1.00  0.00     0.012 C 
HETATM   30  C   UNL     1       8.484   2.184  14.101  1.00  0.00     0.012 C 
ENDBRANCH  16  28
BRANCH  14  31
HETATM   31  C   UNL     1       5.398   1.158  11.899  1.00  0.00     0.014 C 
HETATM   32  C   UNL     1       4.049   1.190  11.176  1.00  0.00     0.012 C 
BRANCH  31  33
HETATM   33  C   UNL     1       5.174   1.124  13.420  1.00  0.00     0.002 C 
HETATM   34  C   UNL     1       4.427   2.338  13.954  1.00  0.00     0.005 C 
ENDBRANCH  31  33
ENDBRANCH  14  31
BRANCH  13  35
HETATM   35  C   UNL     1      13.810   1.146   9.649  1.00  0.00     0.014 C 
HETATM   36  C   UNL     1      14.064   0.057   8.601  1.00  0.00     0.012 C 
BRANCH  35  37
HETATM   37  C   UNL     1      14.526   2.443   9.234  1.00  0.00     0.002 C 
HETATM   38  C   UNL     1      13.644   3.681   9.327  1.00  0.00     0.005 C 
ENDBRANCH  35  37
ENDBRANCH  13  35
BRANCH  18  39
HETATM   39  C   UNL     1       7.391  -3.555   8.884  1.00  0.00     0.016 C 
HETATM   40  C   UNL     1       8.450  -3.345   7.805  1.00  0.00     0.012 C 
HETATM   41  C   UNL     1       7.857  -4.598   9.898  1.00  0.00     0.012 C 
ENDBRANCH  18  39
BRANCH  17  42
HETATM   42  C   UNL     1      10.523   1.779   5.508  1.00  0.00     0.016 C 
HETATM   43  C   UNL     1      12.002   2.112   5.312  1.00  0.00     0.012 C 
HETATM   44  C   UNL     1       9.699   3.060   5.632  1.00  0.00     0.012 C 
ENDBRANCH  17  42
BRANCH  15  45
HETATM   45  C   UNL     1       5.566   0.303   5.627  1.00  0.00     0.014 C 
HETATM   46  C   UNL     1       4.277   1.043   6.003  1.00  0.00     0.012 C 
BRANCH  45  47
HETATM   47  C   UNL     1       6.217   0.984   4.407  1.00  0.00     0.002 C 
HETATM   48  C   UNL     1       6.119   2.502   4.436  1.00  0.00     0.005 C 
ENDBRANCH  45  47
ENDBRANCH  15  45
TORSDOF 9
ENDMDL
MODEL 14
REMARK VINA RESULT:    -6.368      2.245      6.909
REMARK INTER + INTRA:          -9.016
REMARK INTER:                  -9.466
REMARK INTRA:                   0.450
REMARK UNBOUND:                 0.702
REMARK  9 active torsions:
REMARK  status: ('A' for Active; 'I' for Inactive)
REMARK    1  A    between atoms: C_13  and  C_16 
REMARK    2  A    between atoms: C_14  and  C_17 
REMARK    3  A    between atoms: C_15  and  C_18 
REMARK    4  A    between atoms: C_16  and  C_22 
REMARK    5  A    between atoms: C_17  and  C_23 
REMARK    6  A    between atoms: C_18  and  C_24 
REMARK    7  A    between atoms: C_19  and  C_25 
REMARK    8  A    between atoms: C_20  and  C_26 
REMARK    9  A    between atoms: C_21  and  C_27 
ROOT
HETATM    1  O   UNL     1      10.403  -0.401   6.806  1.00  0.00    -0.304 OA
HETATM    2  O   UNL     1       6.274  -2.580   8.798  1.00  0.00    -0.304 OA
HETATM    3  O   UNL     1      10.347  -0.923  10.827  1.00  0.00    -0.304 OA
HETATM    4  O   UNL     1       7.912  -0.805   6.213  1.00  0.00    -0.270 OA
HETATM    5  O   UNL     1      13.729  -0.370  11.209  1.00  0.00    -0.270 OA
HETATM    6  O   UNL     1       7.525  -0.362   9.470  1.00  0.00    -0.270 OA
HETATM    7  O   UNL     1      12.672  -0.798   6.927  1.00  0.00    -0.263 OA
HETATM    8  O   UNL     1       8.181  -3.881   8.758  1.00  0.00    -0.263 OA
HETATM    9  O   UNL     1      11.023   0.594  12.419  1.00  0.00    -0.263 OA
HETATM   10  N   UNL     1       8.293  -3.089   6.066  1.00  0.00    -0.340 N 
HETATM   11  N   UNL     1      12.744   0.586   9.340  1.00  0.00    -0.340 N 
HETATM   12  N   UNL     1       7.844  -0.909  11.703  1.00  0.00    -0.340 N 
HETATM   13  C   UNL     1       6.988  -3.381   6.693  1.00  0.00     0.190 C 
HETATM   14  C   UNL     1      11.583   0.776   8.446  1.00  0.00     0.190 C 
HETATM   15  C   UNL     1       8.654   0.307  11.949  1.00  0.00     0.190 C 
HETATM   16  C   UNL     1      10.180  -1.463   5.854  1.00  0.00     0.227 C 
HETATM   17  C   UNL     1       6.416  -2.350  10.214  1.00  0.00     0.227 C 
HETATM   18  C   UNL     1      11.664  -1.381  10.503  1.00  0.00     0.227 C 
HETATM   19  C   UNL     1       8.694  -1.745   6.031  1.00  0.00     0.250 C 
HETATM   20  C   UNL     1      12.796  -0.336  10.398  1.00  0.00     0.250 C 
HETATM   21  C   UNL     1       7.312  -1.123  10.422  1.00  0.00     0.250 C 
HETATM   22  C   UNL     1      11.659  -0.232   7.311  1.00  0.00     0.283 C 
HETATM   23  C   UNL     1       7.242  -3.334   8.194  1.00  0.00     0.283 C 
HETATM   24  C   UNL     1      10.145  -0.001  11.809  1.00  0.00     0.283 C 
HETATM   25  C   UNL     1       9.148  -4.204   5.653  1.00  0.00     0.153 C 
HETATM   26  C   UNL     1      13.923   1.420   9.105  1.00  0.00     0.153 C 
HETATM   27  C   UNL     1       7.723  -1.849  12.821  1.00  0.00     0.153 C 
ENDROOT
BRANCH  16  28
HETATM   28  C   UNL     1      10.471  -0.976   4.446  1.00  0.00     0.016 C 
HETATM   29  C   UNL     1      11.725  -1.648   3.892  1.00  0.00     0.012 C 
HETATM   30  C   UNL     1      10.623   0.544   4.422  1.00  0.00     0.012 C 
ENDBRANCH  16  28
BRANCH  14  31
HETATM   31  C   UNL     1      11.424   2.188   7.884  1.00  0.00     0.014 C 
HETATM   32  C   UNL     1      12.145   2.292   6.538  1.00  0.00     0.012 C 
BRANCH  31  33
HETATM   33  C   UNL     1       9.948   2.589   7.718  1.00  0.00     0.002 C 
HETATM   34  C   UNL     1       9.640   3.237   6.376  1.00  0.00     0.005 C 
ENDBRANCH  31  33
ENDBRANCH  14  31
BRANCH  13  35
HETATM   35  C   UNL     1       6.337  -4.706   6.321  1.00  0.00     0.014 C 
HETATM   36  C   UNL     1       5.452  -5.189   7.474  1.00  0.00     0.012 C 
BRANCH  35  37
HETATM   37  C   UNL     1       5.504  -4.611   5.031  1.00  0.00     0.002 C 
HETATM   38  C   UNL     1       5.457  -5.911   4.240  1.00  0.00     0.005 C 
ENDBRANCH  35  37
ENDBRANCH  13  35
BRANCH  18  39
HETATM   39  C   UNL     1      12.020  -2.495  11.489  1.00  0.00     0.016 C 
HETATM   40  C   UNL     1      10.787  -3.331  11.823  1.00  0.00     0.012 C 
HETATM   41  C   UNL     1      13.130  -3.378  10.921  1.00  0.00     0.012 C 
ENDBRANCH  18  39
BRANCH  17  42
HETATM   42  C   UNL     1       5.023  -2.081  10.764  1.00  0.00     0.016 C 
HETATM   43  C   UNL     1       4.150  -3.331  10.657  1.00  0.00     0.012 C 
HETATM   44  C   UNL     1       4.370  -0.909  10.033  1.00  0.00     0.012 C 
ENDBRANCH  17  42
BRANCH  15  45
HETATM   45  C   UNL     1       8.344   0.982  13.284  1.00  0.00     0.014 C 
HETATM   46  C   UNL     1       8.810   2.442  13.253  1.00  0.00     0.012 C 
BRANCH  45  47
HETATM   47  C   UNL     1       6.847   0.924  13.644  1.00  0.00     0.002 C 
HETATM   48  C   UNL     1       5.975   1.794  12.752  1.00  0.00     0.005 C 
ENDBRANCH  45  47
ENDBRANCH  15  45
TORSDOF 9
ENDMDL
MODEL 15
REMARK VINA RESULT:    -6.346      1.716      6.669
REMARK INTER + INTRA:          -8.983
REMARK INTER:                  -9.712
REMARK INTRA:                   0.729
REMARK UNBOUND:                 0.702
REMARK  9 active torsions:
REMARK  status: ('A' for Active; 'I' for Inactive)
REMARK    1  A    between atoms: C_13  and  C_16 
REMARK    2  A    between atoms: C_14  and  C_17 
REMARK    3  A    between atoms: C_15  and  C_18 
REMARK    4  A    between atoms: C_16  and  C_22 
REMARK    5  A    between atoms: C_17  and  C_23 
REMARK    6  A    between atoms: C_18  and  C_24 
REMARK    7  A    between atoms: C_19  and  C_25 
REMARK    8  A    between atoms: C_20  and  C_26 
REMARK    9  A    between atoms: C_21  and  C_27 
ROOT
HETATM    1  O   UNL     1       7.288  -1.712  11.184  1.00  0.00    -0.304 OA
HETATM    2  O   UNL     1      11.001   0.351   8.405  1.00  0.00    -0.304 OA
HETATM    3  O   UNL     1       6.766  -1.644   7.163  1.00  0.00    -0.304 OA
HETATM    4  O   UNL     1       9.267  -0.061  11.461  1.00  0.00    -0.270 OA
HETATM    5  O   UNL     1       4.176  -3.919   7.197  1.00  0.00    -0.270 OA
HETATM    6  O   UNL     1       8.404   0.795   8.382  1.00  0.00    -0.270 OA
HETATM    7  O   UNL     1       6.159  -3.723  11.155  1.00  0.00    -0.263 OA
HETATM    8  O   UNL     1      10.811  -1.946   8.288  1.00  0.00    -0.263 OA
HETATM    9  O   UNL     1       4.833  -1.102   6.037  1.00  0.00    -0.263 OA
HETATM   10  N   UNL     1      10.782  -1.779  11.090  1.00  0.00    -0.340 N 
HETATM   11  N   UNL     1       4.505  -2.720   9.155  1.00  0.00    -0.340 N 
HETATM   12  N   UNL     1       8.091   0.400   6.117  1.00  0.00    -0.340 N 
HETATM   13  C   UNL     1      11.658  -0.882  10.309  1.00  0.00     0.190 C 
HETATM   14  C   UNL     1       5.289  -1.770   9.971  1.00  0.00     0.190 C 
HETATM   15  C   UNL     1       6.621   0.536   6.233  1.00  0.00     0.190 C 
HETATM   16  C   UNL     1       8.448  -2.273  11.835  1.00  0.00     0.227 C 
HETATM   17  C   UNL     1      10.405   0.504   7.100  1.00  0.00     0.227 C 
HETATM   18  C   UNL     1       6.375  -2.985   7.474  1.00  0.00     0.227 C 
HETATM   19  C   UNL     1       9.534  -1.268  11.476  1.00  0.00     0.250 C 
HETATM   20  C   UNL     1       4.916  -3.237   7.916  1.00  0.00     0.250 C 
HETATM   21  C   UNL     1       8.883   0.576   7.263  1.00  0.00     0.250 C 
HETATM   22  C   UNL     1       6.268  -2.548  10.837  1.00  0.00     0.283 C 
HETATM   23  C   UNL     1      11.112  -0.923   8.888  1.00  0.00     0.283 C 
HETATM   24  C   UNL     1       5.966  -0.833   6.415  1.00  0.00     0.283 C 
HETATM   25  C   UNL     1      11.191  -3.170  11.294  1.00  0.00     0.153 C 
HETATM   26  C   UNL     1       3.208  -3.151   9.676  1.00  0.00     0.153 C 
HETATM   27  C   UNL     1       8.609   0.013   4.801  1.00  0.00     0.153 C 
ENDROOT
BRANCH  16  28
HETATM   28  C   UNL     1       8.235  -2.322  13.337  1.00  0.00     0.016 C 
HETATM   29  C   UNL     1       7.888  -3.740  13.786  1.00  0.00     0.012 C 
HETATM   30  C   UNL     1       7.140  -1.344  13.759  1.00  0.00     0.012 C 
ENDBRANCH  16  28
BRANCH  14  31
HETATM   31  C   UNL     1       4.460  -0.825  10.839  1.00  0.00     0.014 C 
HETATM   32  C   UNL     1       4.204  -1.467  12.204  1.00  0.00     0.012 C 
BRANCH  31  33
HETATM   33  C   UNL     1       5.136   0.544  11.024  1.00  0.00     0.002 C 
HETATM   34  C   UNL     1       4.718   1.262  12.299  1.00  0.00     0.005 C 
ENDBRANCH  31  33
ENDBRANCH  14  31
BRANCH  13  35
HETATM   35  C   UNL     1      13.143  -1.219  10.301  1.00  0.00     0.014 C 
HETATM   36  C   UNL     1      13.834  -0.491   9.145  1.00  0.00     0.012 C 
BRANCH  35  37
HETATM   37  C   UNL     1      13.835  -0.863  11.628  1.00  0.00     0.002 C 
HETATM   38  C   UNL     1      14.652  -2.006  12.215  1.00  0.00     0.005 C 
ENDBRANCH  35  37
ENDBRANCH  13  35
BRANCH  18  39
HETATM   39  C   UNL     1       6.759  -3.865   6.284  1.00  0.00     0.016 C 
HETATM   40  C   UNL     1       8.245  -3.720   5.967  1.00  0.00     0.012 C 
HETATM   41  C   UNL     1       6.409  -5.326   6.562  1.00  0.00     0.012 C 
ENDBRANCH  18  39
BRANCH  17  42
HETATM   42  C   UNL     1      10.933   1.808   6.519  1.00  0.00     0.016 C 
HETATM   43  C   UNL     1      11.986   1.534   5.445  1.00  0.00     0.012 C 
HETATM   44  C   UNL     1      11.511   2.696   7.620  1.00  0.00     0.012 C 
ENDBRANCH  17  42
BRANCH  15  45
HETATM   45  C   UNL     1       5.989   1.309   5.077  1.00  0.00     0.014 C 
HETATM   46  C   UNL     1       4.492   1.508   5.335  1.00  0.00     0.012 C 
BRANCH  45  47
HETATM   47  C   UNL     1       6.660   2.676   4.842  1.00  0.00     0.002 C 
HETATM   48  C   UNL     1       7.227   2.841   3.440  1.00  0.00     0.005 C 
ENDBRANCH  45  47
ENDBRANCH  15  45
TORSDOF 9
ENDMDL
MODEL 16
REMARK VINA RESULT:    -6.314      1.842      3.141
REMARK INTER + INTRA:          -8.934
REMARK INTER:                  -9.229
REMARK INTRA:                   0.295
REMARK UNBOUND:                 0.702
REMARK  9 active torsions:
REMARK  status: ('A' for Active; 'I' for Inactive)
REMARK    1  A    between atoms: C_13  and  C_16 
REMARK    2  A    between atoms: C_14  and  C_17 
REMARK    3  A    between atoms: C_15  and  C_18 
REMARK    4  A    between atoms: C_16  and  C_22 
REMARK    5  A    between atoms: C_17  and  C_23 
REMARK    6  A    between atoms: C_18  and  C_24 
REMARK    7  A    between atoms: C_19  and  C_25 
REMARK    8  A    between atoms: C_20  and  C_26 
REMARK    9  A    between atoms: C_21  and  C_27 
ROOT
HETATM    1  O   UNL     1       6.687  -2.079   8.697  1.00  0.00    -0.304 OA
HETATM    2  O   UNL     1      10.789   0.634   7.435  1.00  0.00    -0.304 OA
HETATM    3  O   UNL     1       8.718  -0.288  11.716  1.00  0.00    -0.304 OA
HETATM    4  O   UNL     1       8.397  -1.882   6.757  1.00  0.00    -0.270 OA
HETATM    5  O   UNL     1       6.180  -0.695  14.014  1.00  0.00    -0.270 OA
HETATM    6  O   UNL     1      10.481  -1.252   9.249  1.00  0.00    -0.270 OA
HETATM    7  O   UNL     1       4.779  -1.668   9.924  1.00  0.00    -0.263 OA
HETATM    8  O   UNL     1       8.939   1.849   8.096  1.00  0.00    -0.263 OA
HETATM    9  O   UNL     1       9.243  -1.213  13.756  1.00  0.00    -0.263 OA
HETATM   10  N   UNL     1       7.596   0.232   6.234  1.00  0.00    -0.340 N 
HETATM   11  N   UNL     1       6.210  -2.201  12.251  1.00  0.00    -0.340 N 
HETATM   12  N   UNL     1      11.269  -0.015  11.047  1.00  0.00    -0.340 N 
HETATM   13  C   UNL     1       8.961   0.712   5.940  1.00  0.00     0.190 C 
HETATM   14  C   UNL     1       6.755  -2.667  10.959  1.00  0.00     0.190 C 
HETATM   15  C   UNL     1      10.934  -1.088  12.012  1.00  0.00     0.190 C 
HETATM   16  C   UNL     1       6.194  -1.380   7.534  1.00  0.00     0.227 C 
HETATM   17  C   UNL     1      11.441   0.872   8.699  1.00  0.00     0.227 C 
HETATM   18  C   UNL     1       7.366   0.038  12.054  1.00  0.00     0.227 C 
HETATM   19  C   UNL     1       7.480  -1.052   6.787  1.00  0.00     0.250 C 
HETATM   20  C   UNL     1       6.549  -0.987  12.870  1.00  0.00     0.250 C 
HETATM   21  C   UNL     1      11.016  -0.224   9.683  1.00  0.00     0.250 C 
HETATM   22  C   UNL     1       5.926  -2.078   9.828  1.00  0.00     0.283 C 
HETATM   23  C   UNL     1       9.532   1.151   7.282  1.00  0.00     0.283 C 
HETATM   24  C   UNL     1       9.558  -0.844  12.632  1.00  0.00     0.283 C 
HETATM   25  C   UNL     1       6.469   1.153   6.073  1.00  0.00     0.153 C 
HETATM   26  C   UNL     1       5.248  -3.068  12.932  1.00  0.00     0.153 C 
HETATM   27  C   UNL     1      11.782   1.236  11.615  1.00  0.00     0.153 C 
ENDROOT
BRANCH  16  28
HETATM   28  C   UNL     1       5.310  -2.295   6.706  1.00  0.00     0.016 C 
HETATM   29  C   UNL     1       6.074  -3.550   6.289  1.00  0.00     0.012 C 
HETATM   30  C   UNL     1       4.774  -1.561   5.478  1.00  0.00     0.012 C 
ENDBRANCH  16  28
BRANCH  14  31
HETATM   31  C   UNL     1       6.848  -4.184  10.805  1.00  0.00     0.014 C 
HETATM   32  C   UNL     1       5.796  -4.668   9.805  1.00  0.00     0.012 C 
BRANCH  31  33
HETATM   33  C   UNL     1       8.246  -4.641  10.355  1.00  0.00     0.002 C 
HETATM   34  C   UNL     1       9.330  -4.403  11.396  1.00  0.00     0.005 C 
ENDBRANCH  31  33
ENDBRANCH  14  31
BRANCH  13  35
HETATM   35  C   UNL     1       9.080   1.848   4.933  1.00  0.00     0.014 C 
HETATM   36  C   UNL     1      10.451   2.517   5.066  1.00  0.00     0.012 C 
BRANCH  35  37
HETATM   37  C   UNL     1       8.871   1.374   3.485  1.00  0.00     0.002 C 
HETATM   38  C   UNL     1       7.842   2.196   2.719  1.00  0.00     0.005 C 
ENDBRANCH  35  37
ENDBRANCH  13  35
BRANCH  18  39
HETATM   39  C   UNL     1       7.379   1.410  12.731  1.00  0.00     0.016 C 
HETATM   40  C   UNL     1       8.331   2.357  12.006  1.00  0.00     0.012 C 
HETATM   41  C   UNL     1       5.970   1.997  12.779  1.00  0.00     0.012 C 
ENDBRANCH  18  39
BRANCH  17  42
HETATM   42  C   UNL     1      12.941   0.798   8.447  1.00  0.00     0.016 C 
HETATM   43  C   UNL     1      13.346   1.742   7.316  1.00  0.00     0.012 C 
HETATM   44  C   UNL     1      13.364  -0.635   8.124  1.00  0.00     0.012 C 
ENDBRANCH  17  42
BRANCH  15  45
HETATM   45  C   UNL     1      12.003  -1.297  13.084  1.00  0.00     0.014 C 
HETATM   46  C   UNL     1      11.732  -2.598  13.848  1.00  0.00     0.012 C 
BRANCH  45  47
HETATM   47  C   UNL     1      13.428  -1.326  12.500  1.00  0.00     0.002 C 
HETATM   48  C   UNL     1      14.077  -2.700  12.555  1.00  0.00     0.005 C 
ENDBRANCH  45  47
ENDBRANCH  15  45
TORSDOF 9
ENDMDL
MODEL 17
REMARK VINA RESULT:    -6.301      2.215      7.759
REMARK INTER + INTRA:          -8.914
REMARK INTER:                  -9.627
REMARK INTRA:                   0.713
REMARK UNBOUND:                 0.702
REMARK  9 active torsions:
REMARK  status: ('A' for Active; 'I' for Inactive)
REMARK    1  A    between atoms: C_13  and  C_16 
REMARK    2  A    between atoms: C_14  and  C_17 
REMARK    3  A    between atoms: C_15  and  C_18 
REMARK    4  A    between atoms: C_16  and  C_22 
REMARK    5  A    between atoms: C_17  and  C_23 
REMARK    6  A    between atoms: C_18  and  C_24 
REMARK    7  A    between atoms: C_19  and  C_25 
REMARK    8  A    between atoms: C_20  and  C_26 
REMARK    9  A    between atoms: C_21  and  C_27 
ROOT
HETATM    1  O   UNL     1       9.968  -1.239  10.663  1.00  0.00    -0.304 OA
HETATM    2  O   UNL     1       4.898  -1.248  10.904  1.00  0.00    -0.304 OA
HETATM    3  O   UNL     1       7.958  -2.078   7.242  1.00  0.00    -0.304 OA
HETATM    4  O   UNL     1       8.083  -1.483  12.425  1.00  0.00    -0.270 OA
HETATM    5  O   UNL     1      10.702  -1.616   5.206  1.00  0.00    -0.270 OA
HETATM    6  O   UNL     1       6.563  -3.044   9.934  1.00  0.00    -0.270 OA
HETATM    7  O   UNL     1      11.532  -0.200   9.323  1.00  0.00    -0.263 OA
HETATM    8  O   UNL     1       5.852   0.533   9.786  1.00  0.00    -0.263 OA
HETATM    9  O   UNL     1       8.466  -3.726   5.719  1.00  0.00    -0.263 OA
HETATM   10  N   UNL     1       7.450   0.724  12.087  1.00  0.00    -0.340 N 
HETATM   11  N   UNL     1      11.151  -2.185   7.409  1.00  0.00    -0.340 N 
HETATM   12  N   UNL     1       5.611  -3.169   7.821  1.00  0.00    -0.340 N 
HETATM   13  C   UNL     1       6.022   0.368  12.211  1.00  0.00     0.190 C 
HETATM   14  C   UNL     1      10.704  -2.438   8.795  1.00  0.00     0.190 C 
HETATM   15  C   UNL     1       6.675  -4.074   7.328  1.00  0.00     0.190 C 
HETATM   16  C   UNL     1       9.740  -0.058  11.461  1.00  0.00     0.227 C 
HETATM   17  C   UNL     1       4.499  -1.862   9.662  1.00  0.00     0.227 C 
HETATM   18  C   UNL     1       8.937  -1.146   6.772  1.00  0.00     0.227 C 
HETATM   19  C   UNL     1       8.368  -0.336  12.060  1.00  0.00     0.250 C 
HETATM   20  C   UNL     1      10.332  -1.684   6.385  1.00  0.00     0.250 C 
HETATM   21  C   UNL     1       5.651  -2.738   9.156  1.00  0.00     0.250 C 
HETATM   22  C   UNL     1      10.815  -1.151   9.597  1.00  0.00     0.283 C 
HETATM   23  C   UNL     1       5.594  -0.074  10.818  1.00  0.00     0.283 C 
HETATM   24  C   UNL     1       7.776  -3.280   6.627  1.00  0.00     0.283 C 
HETATM   25  C   UNL     1       7.815   2.123  11.858  1.00  0.00     0.153 C 
HETATM   26  C   UNL     1      12.547  -2.477   7.084  1.00  0.00     0.153 C 
HETATM   27  C   UNL     1       4.621  -2.726   6.835  1.00  0.00     0.153 C 
ENDROOT
BRANCH  16  28
HETATM   28  C   UNL     1      10.791   0.051  12.551  1.00  0.00     0.016 C 
HETATM   29  C   UNL     1      10.146  -0.045  13.932  1.00  0.00     0.012 C 
HETATM   30  C   UNL     1      11.575   1.355  12.415  1.00  0.00     0.012 C 
ENDBRANCH  16  28
BRANCH  14  31
HETATM   31  C   UNL     1      11.439  -3.568   9.515  1.00  0.00     0.014 C 
HETATM   32  C   UNL     1      12.437  -2.981  10.515  1.00  0.00     0.012 C 
BRANCH  31  33
HETATM   33  C   UNL     1      10.475  -4.524  10.239  1.00  0.00     0.002 C 
HETATM   34  C   UNL     1      11.151  -5.385  11.297  1.00  0.00     0.005 C 
ENDBRANCH  31  33
ENDBRANCH  14  31
BRANCH  13  35
HETATM   35  C   UNL     1       5.090   1.461  12.714  1.00  0.00     0.014 C 
HETATM   36  C   UNL     1       3.697   1.276  12.106  1.00  0.00     0.012 C 
BRANCH  35  37
HETATM   37  C   UNL     1       4.987   1.486  14.249  1.00  0.00     0.002 C 
HETATM   38  C   UNL     1       5.678   2.685  14.886  1.00  0.00     0.005 C 
ENDBRANCH  35  37
ENDBRANCH  13  35
BRANCH  18  39
HETATM   39  C   UNL     1       8.305  -0.354   5.625  1.00  0.00     0.016 C 
HETATM   40  C   UNL     1       6.816  -0.136   5.880  1.00  0.00     0.012 C 
HETATM   41  C   UNL     1       9.020   0.983   5.440  1.00  0.00     0.012 C 
ENDBRANCH  18  39
BRANCH  17  42
HETATM   42  C   UNL     1       3.279  -2.721   9.961  1.00  0.00     0.016 C 
HETATM   43  C   UNL     1       2.138  -1.867  10.513  1.00  0.00     0.012 C 
HETATM   44  C   UNL     1       3.633  -3.839  10.941  1.00  0.00     0.012 C 
ENDBRANCH  17  42
BRANCH  15  45
HETATM   45  C   UNL     1       6.148  -5.203   6.443  1.00  0.00     0.014 C 
HETATM   46  C   UNL     1       5.142  -6.056   7.224  1.00  0.00     0.012 C 
BRANCH  45  47
HETATM   47  C   UNL     1       5.492  -4.683   5.149  1.00  0.00     0.002 C 
HETATM   48  C   UNL     1       5.384  -5.737   4.058  1.00  0.00     0.005 C 
ENDBRANCH  45  47
ENDBRANCH  15  45
TORSDOF 9
ENDMDL
MODEL 18
REMARK VINA RESULT:    -6.273      2.145      6.707
REMARK INTER + INTRA:          -8.872
REMARK INTER:                 -10.584
REMARK INTRA:                   1.712
REMARK UNBOUND:                 0.702
REMARK  9 active torsions:
REMARK  status: ('A' for Active; 'I' for Inactive)
REMARK    1  A    between atoms: C_13  and  C_16 
REMARK    2  A    between atoms: C_14  and  C_17 
REMARK    3  A    between atoms: C_15  and  C_18 
REMARK    4  A    between atoms: C_16  and  C_22 
REMARK    5  A    between atoms: C_17  and  C_23 
REMARK    6  A    between atoms: C_18  and  C_24 
REMARK    7  A    between atoms: C_19  and  C_25 
REMARK    8  A    between atoms: C_20  and  C_26 
REMARK    9  A    between atoms: C_21  and  C_27 
ROOT
HETATM    1  O   UNL     1      11.385   1.647   7.630  1.00  0.00    -0.304 OA
HETATM    2  O   UNL     1       6.709   0.404   9.166  1.00  0.00    -0.304 OA
HETATM    3  O   UNL     1      11.089  -0.883  10.785  1.00  0.00    -0.304 OA
HETATM    4  O   UNL     1       8.960   2.553   7.485  1.00  0.00    -0.270 OA
HETATM    5  O   UNL     1      14.384  -1.883  10.628  1.00  0.00    -0.270 OA
HETATM    6  O   UNL     1       8.777   1.289  10.538  1.00  0.00    -0.270 OA
HETATM    7  O   UNL     1      13.271   0.461   7.036  1.00  0.00    -0.263 OA
HETATM    8  O   UNL     1       7.887  -1.255   8.077  1.00  0.00    -0.263 OA
HETATM    9  O   UNL     1      12.334  -0.819  12.719  1.00  0.00    -0.263 OA
HETATM   10  N   UNL     1       8.340   0.749   6.164  1.00  0.00    -0.340 N 
HETATM   11  N   UNL     1      13.908   0.203   9.733  1.00  0.00    -0.340 N 
HETATM   12  N   UNL     1       8.822  -0.438  12.086  1.00  0.00    -0.340 N 
HETATM   13  C   UNL     1       7.031   0.662   6.840  1.00  0.00     0.190 C 
HETATM   14  C   UNL     1      12.942   1.244   9.327  1.00  0.00     0.190 C 
HETATM   15  C   UNL     1      10.068   0.067  12.707  1.00  0.00     0.190 C 
HETATM   16  C   UNL     1      10.739   1.426   6.358  1.00  0.00     0.227 C 
HETATM   17  C   UNL     1       6.927  -0.228  10.443  1.00  0.00     0.227 C 
HETATM   18  C   UNL     1      12.090  -1.533   9.996  1.00  0.00     0.227 C 
HETATM   19  C   UNL     1       9.272   1.650   6.699  1.00  0.00     0.250 C 
HETATM   20  C   UNL     1      13.558  -1.087  10.165  1.00  0.00     0.250 C 
HETATM   21  C   UNL     1       8.256   0.275  11.018  1.00  0.00     0.250 C 
HETATM   22  C   UNL     1      12.591   1.054   7.860  1.00  0.00     0.283 C 
HETATM   23  C   UNL     1       7.271  -0.197   8.075  1.00  0.00     0.283 C 
HETATM   24  C   UNL     1      11.289  -0.631  12.109  1.00  0.00     0.283 C 
HETATM   25  C   UNL     1       8.645  -0.190   5.082  1.00  0.00     0.153 C 
HETATM   26  C   UNL     1      15.330   0.541   9.678  1.00  0.00     0.153 C 
HETATM   27  C   UNL     1       8.307  -1.712  12.600  1.00  0.00     0.153 C 
ENDROOT
BRANCH  16  28
HETATM   28  C   UNL     1      11.217   2.446   5.341  1.00  0.00     0.016 C 
HETATM   29  C   UNL     1      10.036   3.219   4.757  1.00  0.00     0.012 C 
HETATM   30  C   UNL     1      12.014   1.767   4.229  1.00  0.00     0.012 C 
ENDBRANCH  16  28
BRANCH  14  31
HETATM   31  C   UNL     1      13.398   2.681   9.575  1.00  0.00     0.014 C 
HETATM   32  C   UNL     1      13.199   3.513   8.305  1.00  0.00     0.012 C 
BRANCH  31  33
HETATM   33  C   UNL     1      12.654   3.337  10.751  1.00  0.00     0.002 C 
HETATM   34  C   UNL     1      11.195   2.919  10.858  1.00  0.00     0.005 C 
ENDBRANCH  31  33
ENDBRANCH  14  31
BRANCH  13  35
HETATM   35  C   UNL     1       5.882   0.082   6.026  1.00  0.00     0.014 C 
HETATM   36  C   UNL     1       5.133  -0.963   6.856  1.00  0.00     0.012 C 
BRANCH  35  37
HETATM   37  C   UNL     1       4.900   1.164   5.542  1.00  0.00     0.002 C 
HETATM   38  C   UNL     1       5.240   1.723   4.167  1.00  0.00     0.005 C 
ENDBRANCH  35  37
ENDBRANCH  13  35
BRANCH  18  39
HETATM   39  C   UNL     1      11.936  -3.041  10.208  1.00  0.00     0.016 C 
HETATM   40  C   UNL     1      11.799  -3.363  11.694  1.00  0.00     0.012 C 
HETATM   41  C   UNL     1      10.733  -3.571   9.430  1.00  0.00     0.012 C 
ENDBRANCH  18  39
BRANCH  17  42
HETATM   42  C   UNL     1       5.775   0.184  11.348  1.00  0.00     0.016 C 
HETATM   43  C   UNL     1       4.472   0.280  10.555  1.00  0.00     0.012 C 
HETATM   44  C   UNL     1       6.079   1.513  12.039  1.00  0.00     0.012 C 
ENDBRANCH  17  42
BRANCH  15  45
HETATM   45  C   UNL     1      10.065  -0.019  14.232  1.00  0.00     0.014 C 
HETATM   46  C   UNL     1      11.251   0.766  14.804  1.00  0.00     0.012 C 
BRANCH  45  47
HETATM   47  C   UNL     1       8.753   0.500  14.852  1.00  0.00     0.002 C 
HETATM   48  C   UNL     1       8.606   2.012  14.781  1.00  0.00     0.005 C 
ENDBRANCH  45  47
ENDBRANCH  15  45
TORSDOF 9
ENDMDL
MODEL 19
REMARK VINA RESULT:    -6.260      2.044      5.892
REMARK INTER + INTRA:          -8.852
REMARK INTER:                 -10.052
REMARK INTRA:                   1.200
REMARK UNBOUND:                 0.702
REMARK  9 active torsions:
REMARK  status: ('A' for Active; 'I' for Inactive)
REMARK    1  A    between atoms: C_13  and  C_16 
REMARK    2  A    between atoms: C_14  and  C_17 
REMARK    3  A    between atoms: C_15  and  C_18 
REMARK    4  A    between atoms: C_16  and  C_22 
REMARK    5  A    between atoms: C_17  and  C_23 
REMARK    6  A    between atoms: C_18  and  C_24 
REMARK    7  A    between atoms: C_19  and  C_25 
REMARK    8  A    between atoms: C_20  and  C_26 
REMARK    9  A    between atoms: C_21  and  C_27 
ROOT
HETATM    1  O   UNL     1      10.134   1.129   7.178  1.00  0.00    -0.304 OA
HETATM    2  O   UNL     1       9.891  -2.366  10.851  1.00  0.00    -0.304 OA
HETATM    3  O   UNL     1       6.926  -1.351   7.159  1.00  0.00    -0.304 OA
HETATM    4  O   UNL     1      11.707  -0.099   8.832  1.00  0.00    -0.270 OA
HETATM    5  O   UNL     1       5.109   0.588   4.961  1.00  0.00    -0.270 OA
HETATM    6  O   UNL     1       9.638  -2.613   8.241  1.00  0.00    -0.270 OA
HETATM    7  O   UNL     1       8.704   2.755   6.382  1.00  0.00    -0.263 OA
HETATM    8  O   UNL     1       8.403  -0.609  11.030  1.00  0.00    -0.263 OA
HETATM    9  O   UNL     1       5.994  -2.379   5.322  1.00  0.00    -0.263 OA
HETATM   10  N   UNL     1      10.691   0.967  10.626  1.00  0.00    -0.340 N 
HETATM   11  N   UNL     1       7.415   0.816   4.857  1.00  0.00    -0.340 N 
HETATM   12  N   UNL     1       7.571  -3.667   8.278  1.00  0.00    -0.340 N 
HETATM   13  C   UNL     1      10.779  -0.258  11.446  1.00  0.00     0.190 C 
HETATM   14  C   UNL     1       8.767   0.527   5.379  1.00  0.00     0.190 C 
HETATM   15  C   UNL     1       7.461  -3.637   6.801  1.00  0.00     0.190 C 
HETATM   16  C   UNL     1      10.534   1.918   8.319  1.00  0.00     0.227 C 
HETATM   17  C   UNL     1       8.846  -3.254  10.408  1.00  0.00     0.227 C 
HETATM   18  C   UNL     1       6.301  -0.083   6.940  1.00  0.00     0.227 C 
HETATM   19  C   UNL     1      11.056   0.855   9.276  1.00  0.00     0.250 C 
HETATM   20  C   UNL     1       6.217   0.452   5.494  1.00  0.00     0.250 C 
HETATM   21  C   UNL     1       8.724  -3.143   8.883  1.00  0.00     0.250 C 
HETATM   22  C   UNL     1       9.172   1.626   6.349  1.00  0.00     0.283 C 
HETATM   23  C   UNL     1       9.537  -1.067  11.094  1.00  0.00     0.283 C 
HETATM   24  C   UNL     1       6.667  -2.413   6.345  1.00  0.00     0.283 C 
HETATM   25  C   UNL     1      10.106   2.174  11.213  1.00  0.00     0.153 C 
HETATM   26  C   UNL     1       7.319   1.534   3.586  1.00  0.00     0.153 C 
HETATM   27  C   UNL     1       6.411  -4.186   9.009  1.00  0.00     0.153 C 
ENDROOT
BRANCH  16  28
HETATM   28  C   UNL     1      11.640   2.882   7.930  1.00  0.00     0.016 C 
HETATM   29  C   UNL     1      12.465   2.317   6.776  1.00  0.00     0.012 C 
HETATM   30  C   UNL     1      12.536   3.187   9.130  1.00  0.00     0.012 C 
ENDBRANCH  16  28
BRANCH  14  31
HETATM   31  C   UNL     1       9.846   0.345   4.314  1.00  0.00     0.014 C 
HETATM   32  C   UNL     1      10.442   1.705   3.943  1.00  0.00     0.012 C 
BRANCH  31  33
HETATM   33  C   UNL     1      10.964  -0.608   4.770  1.00  0.00     0.002 C 
HETATM   34  C   UNL     1      11.442  -1.554   3.678  1.00  0.00     0.005 C 
ENDBRANCH  31  33
ENDBRANCH  14  31
BRANCH  13  35
HETATM   35  C   UNL     1      10.857  -0.063  12.954  1.00  0.00     0.014 C 
HETATM   36  C   UNL     1       9.969  -1.094  13.656  1.00  0.00     0.012 C 
BRANCH  35  37
HETATM   37  C   UNL     1      12.297  -0.167  13.486  1.00  0.00     0.002 C 
HETATM   38  C   UNL     1      13.156  -1.168  12.725  1.00  0.00     0.005 C 
ENDBRANCH  35  37
ENDBRANCH  13  35
BRANCH  18  39
HETATM   39  C   UNL     1       4.921  -0.128   7.600  1.00  0.00     0.016 C 
HETATM   40  C   UNL     1       5.043  -0.519   9.071  1.00  0.00     0.012 C 
HETATM   41  C   UNL     1       4.214   1.218   7.458  1.00  0.00     0.012 C 
ENDBRANCH  18  39
BRANCH  17  42
HETATM   42  C   UNL     1       9.264  -4.664  10.799  1.00  0.00     0.016 C 
HETATM   43  C   UNL     1       8.566  -5.097  12.088  1.00  0.00     0.012 C 
HETATM   44  C   UNL     1      10.781  -4.754  10.957  1.00  0.00     0.012 C 
ENDBRANCH  17  42
BRANCH  15  45
HETATM   45  C   UNL     1       6.891  -4.925   6.209  1.00  0.00     0.014 C 
HETATM   46  C   UNL     1       5.392  -4.760   5.938  1.00  0.00     0.012 C 
BRANCH  45  47
HETATM   47  C   UNL     1       7.608  -5.348   4.912  1.00  0.00     0.002 C 
HETATM   48  C   UNL     1       7.414  -6.815   4.563  1.00  0.00     0.005 C 
ENDBRANCH  45  47
ENDBRANCH  15  45
TORSDOF 9
ENDMDL
MODEL 20
REMARK VINA RESULT:    -5.898      2.086      6.383
REMARK INTER + INTRA:          -8.299
REMARK INTER:                  -9.000
REMARK INTRA:                   0.702
REMARK UNBOUND:                 0.702
REMARK  9 active torsions:
REMARK  status: ('A' for Active; 'I' for Inactive)
REMARK    1  A    between atoms: C_13  and  C_16 
REMARK    2  A    between atoms: C_14  and  C_17 
REMARK    3  A    between atoms: C_15  and  C_18 
REMARK    4  A    between atoms: C_16  and  C_22 
REMARK    5  A    between atoms: C_17  and  C_23 
REMARK    6  A    between atoms: C_18  and  C_24 
REMARK    7  A    between atoms: C_19  and  C_25 
REMARK    8  A    between atoms: C_20  and  C_26 
REMARK    9  A    between atoms: C_21  and  C_27 
ROOT
HETATM    1  O   UNL     1       8.704  -3.045  11.207  1.00  0.00    -0.304 OA
HETATM    2  O   UNL     1       8.617  -1.135   6.504  1.00  0.00    -0.304 OA
HETATM    3  O   UNL     1      10.983   0.234  10.503  1.00  0.00    -0.304 OA
HETATM    4  O   UNL     1       8.141  -3.794   8.789  1.00  0.00    -0.270 OA
HETATM    5  O   UNL     1      11.469   0.937  13.843  1.00  0.00    -0.270 OA
HETATM    6  O   UNL     1      10.653  -1.768   8.052  1.00  0.00    -0.270 OA
HETATM    7  O   UNL     1       8.366  -2.184  13.320  1.00  0.00    -0.263 OA
HETATM    8  O   UNL     1       7.518   0.100   8.116  1.00  0.00    -0.263 OA
HETATM    9  O   UNL     1      13.136   0.593  11.232  1.00  0.00    -0.263 OA
HETATM   10  N   UNL     1       6.318  -2.359   8.744  1.00  0.00    -0.340 N 
HETATM   11  N   UNL     1      10.996  -1.274  13.324  1.00  0.00    -0.340 N 
HETATM   12  N   UNL     1      11.707   0.296   7.953  1.00  0.00    -0.340 N 
HETATM   13  C   UNL     1       6.585  -2.011   7.334  1.00  0.00     0.190 C 
HETATM   14  C   UNL     1      10.607  -2.318  12.354  1.00  0.00     0.190 C 
HETATM   15  C   UNL     1      12.736  -0.112   8.938  1.00  0.00     0.190 C 
HETATM   16  C   UNL     1       7.291  -3.120  10.918  1.00  0.00     0.227 C 
HETATM   17  C   UNL     1       9.721  -0.208   6.493  1.00  0.00     0.227 C 
HETATM   18  C   UNL     1      10.356   0.588  11.739  1.00  0.00     0.227 C 
HETATM   19  C   UNL     1       7.277  -3.150   9.395  1.00  0.00     0.250 C 
HETATM   20  C   UNL     1      11.006   0.104  13.054  1.00  0.00     0.250 C 
HETATM   21  C   UNL     1      10.727  -0.632   7.569  1.00  0.00     0.250 C 
HETATM   22  C   UNL     1       9.097  -2.494  12.391  1.00  0.00     0.283 C 
HETATM   23  C   UNL     1       7.602  -0.878   7.384  1.00  0.00     0.283 C 
HETATM   24  C   UNL     1      12.333   0.323  10.347  1.00  0.00     0.283 C 
HETATM   25  C   UNL     1       5.166  -1.757   9.418  1.00  0.00     0.153 C 
HETATM   26  C   UNL     1      11.399  -1.709  14.662  1.00  0.00     0.153 C 
HETATM   27  C   UNL     1      11.753   1.691   7.502  1.00  0.00     0.153 C 
ENDROOT
BRANCH  16  28
HETATM   28  C   UNL     1       6.705  -4.400  11.486  1.00  0.00     0.016 C 
HETATM   29  C   UNL     1       6.120  -5.265  10.372  1.00  0.00     0.012 C 
HETATM   30  C   UNL     1       5.641  -4.087  12.536  1.00  0.00     0.012 C 
ENDBRANCH  16  28
BRANCH  14  31
HETATM   31  C   UNL     1      11.296  -3.668  12.546  1.00  0.00     0.014 C 
HETATM   32  C   UNL     1      10.322  -4.660  13.185  1.00  0.00     0.012 C 
BRANCH  31  33
HETATM   33  C   UNL     1      11.835  -4.243  11.224  1.00  0.00     0.002 C 
HETATM   34  C   UNL     1      11.888  -5.764  11.199  1.00  0.00     0.005 C 
ENDBRANCH  31  33
ENDBRANCH  14  31
BRANCH  13  35
HETATM   35  C   UNL     1       5.385  -1.589   6.499  1.00  0.00     0.014 C 
HETATM   36  C   UNL     1       5.760  -0.393   5.618  1.00  0.00     0.012 C 
BRANCH  35  37
HETATM   37  C   UNL     1       4.847  -2.733   5.621  1.00  0.00     0.002 C 
HETATM   38  C   UNL     1       4.321  -3.917   6.420  1.00  0.00     0.005 C 
ENDBRANCH  35  37
ENDBRANCH  13  35
BRANCH  18  39
HETATM   39  C   UNL     1      10.159   2.105  11.738  1.00  0.00     0.016 C 
HETATM   40  C   UNL     1      10.203   2.651  10.313  1.00  0.00     0.012 C 
HETATM   41  C   UNL     1       8.840   2.475  12.415  1.00  0.00     0.012 C 
ENDBRANCH  18  39
BRANCH  17  42
HETATM   42  C   UNL     1      10.360  -0.292   5.115  1.00  0.00     0.016 C 
HETATM   43  C   UNL     1       9.457   0.346   4.060  1.00  0.00     0.012 C 
HETATM   44  C   UNL     1      10.666  -1.744   4.749  1.00  0.00     0.012 C 
ENDBRANCH  17  42
BRANCH  15  45
HETATM   45  C   UNL     1      14.141   0.369   8.584  1.00  0.00     0.014 C 
HETATM   46  C   UNL     1      14.513   1.582   9.445  1.00  0.00     0.012 C 
BRANCH  45  47
HETATM   47  C   UNL     1      15.205  -0.732   8.754  1.00  0.00     0.002 C 
HETATM   48  C   UNL     1      14.642  -2.141   8.638  1.00  0.00     0.005 C 
ENDBRANCH  45  47
ENDBRANCH  15  45
TORSDOF 9
ENDMDL
