57134655
  -OEChem-08242509292D

 69 71  0     1  0  0  0  0  0999 V2000
    7.7361    2.8548    0.0000 Cl  0  0  0  0  0  0  0  0  0  0  0  0
    9.4310    2.8453    0.0000 Cl  0  0  0  0  0  0  0  0  0  0  0  0
    7.7331   -0.0955    0.0000 O   0  0  0  0  0  0  0  0  0  0  0  0
    9.4872   -0.1359    0.0000 O   0  0  0  0  0  0  0  0  0  0  0  0
   10.1337   -2.1064    0.0000 O   0  0  0  0  0  0  0  0  0  0  0  0
    5.1350    3.4044    0.0000 O   0  0  0  0  0  0  0  0  0  0  0  0
    7.4919   -0.9275    0.0000 O   0  0  0  0  0  0  0  0  0  0  0  0
    5.8421   -0.3027    0.0000 O   0  0  0  0  0  0  0  0  0  0  0  0
    2.5369    0.9044    0.0000 O   0  0  0  0  0  0  0  0  0  0  0  0
    8.5991    0.4044    0.0000 N   0  0  0  0  0  0  0  0  0  0  0  0
    6.0010    0.9044    0.0000 N   0  0  0  0  0  0  0  0  0  0  0  0
    7.4919   -1.9275    0.0000 N   0  0  0  0  0  0  0  0  0  0  0  0
    4.2690    1.9044    0.0000 N   0  0  0  0  0  0  0  0  0  0  0  0
    4.6350   -0.4616    0.0000 N   0  0  0  0  0  0  0  0  0  0  0  0
    7.7331    0.9044    0.0000 C   0  0  1  0  0  0  0  0  0  0  0  0
    7.9423    1.8763    0.0000 C   0  0  1  0  0  0  0  0  0  0  0  0
    8.9310    1.9793    0.0000 C   0  0  1  0  0  0  0  0  0  0  0  0
    9.3361    1.0715    0.0000 C   0  0  0  0  0  0  0  0  0  0  0  0
    6.8671    0.4044    0.0000 C   0  0  0  0  0  0  0  0  0  0  0  0
    8.5991   -0.5956    0.0000 C   0  0  0  0  0  0  0  0  0  0  0  0
    8.4578   -1.6687    0.0000 C   0  0  2  0  0  0  0  0  0  0  0  0
    6.0010    1.9044    0.0000 C   0  0  1  0  0  0  0  0  0  0  0  0
    9.1694   -2.3713    0.0000 C   0  0  0  0  0  0  0  0  0  0  0  0
    6.5010    2.7705    0.0000 C   0  0  0  0  0  0  0  0  0  0  0  0
    5.1350    2.4044    0.0000 C   0  0  0  0  0  0  0  0  0  0  0  0
    4.8938   -1.4275    0.0000 C   0  0  2  0  0  0  0  0  0  0  0  0
    5.7599   -1.9275    0.0000 C   0  0  0  0  0  0  0  0  0  0  0  0
    6.6259   -1.4275    0.0000 C   0  0  0  0  0  0  0  0  0  0  0  0
    4.2690    0.9044    0.0000 C   0  0  2  0  0  0  0  0  0  0  0  0
    6.0010    3.6365    0.0000 C   0  0  0  0  0  0  0  0  0  0  0  0
    5.1350    0.4044    0.0000 C   0  0  0  0  0  0  0  0  0  0  0  0
    4.1005   -2.0363    0.0000 C   0  0  0  0  0  0  0  0  0  0  0  0
    3.4030    0.4044    0.0000 C   0  0  0  0  0  0  0  0  0  0  0  0
    3.1766   -1.6536    0.0000 C   0  0  0  0  0  0  0  0  0  0  0  0
    4.2310   -3.0277    0.0000 C   0  0  0  0  0  0  0  0  0  0  0  0
    2.3832   -2.2624    0.0000 C   0  0  0  0  0  0  0  0  0  0  0  0
    3.4377   -3.6365    0.0000 C   0  0  0  0  0  0  0  0  0  0  0  0
    2.5138   -3.2538    0.0000 C   0  0  0  0  0  0  0  0  0  0  0  0
    7.0461    1.4049    0.0000 H   0  0  0  0  0  0  0  0  0  0  0  0
    7.3223    1.8776    0.0000 H   0  0  0  0  0  0  0  0  0  0  0  0
    8.5936    2.4994    0.0000 H   0  0  0  0  0  0  0  0  0  0  0  0
    9.7016    0.5707    0.0000 H   0  0  0  0  0  0  0  0  0  0  0  0
    9.8726    1.3823    0.0000 H   0  0  0  0  0  0  0  0  0  0  0  0
    8.2993   -2.2681    0.0000 H   0  0  0  0  0  0  0  0  0  0  0  0
    5.4642    1.2146    0.0000 H   0  0  0  0  0  0  0  0  0  0  0  0
    6.5999    1.7440    0.0000 H   0  0  0  0  0  0  0  0  0  0  0  0
    8.6638   -2.7302    0.0000 H   0  0  0  0  0  0  0  0  0  0  0  0
    9.4349   -2.9316    0.0000 H   0  0  0  0  0  0  0  0  0  0  0  0
    7.4110   -2.5422    0.0000 H   0  0  0  0  0  0  0  0  0  0  0  0
    6.9760    2.3719    0.0000 H   0  0  0  0  0  0  0  0  0  0  0  0
    6.9760    3.1690    0.0000 H   0  0  0  0  0  0  0  0  0  0  0  0
    4.3067   -1.2282    0.0000 H   0  0  0  0  0  0  0  0  0  0  0  0
    5.3613   -2.4025    0.0000 H   0  0  0  0  0  0  0  0  0  0  0  0
    6.1584   -2.4025    0.0000 H   0  0  0  0  0  0  0  0  0  0  0  0
    3.7321    1.2144    0.0000 H   0  0  0  0  0  0  0  0  0  0  0  0
    3.7321    2.2144    0.0000 H   0  0  0  0  0  0  0  0  0  0  0  0
    4.0203   -0.3807    0.0000 H   0  0  0  0  0  0  0  0  0  0  0  0
    6.5380    3.9465    0.0000 H   0  0  0  0  0  0  0  0  0  0  0  0
    5.6910    4.1734    0.0000 H   0  0  0  0  0  0  0  0  0  0  0  0
    5.4641    3.3265    0.0000 H   0  0  0  0  0  0  0  0  0  0  0  0
    3.0044   -0.0705    0.0000 H   0  0  0  0  0  0  0  0  0  0  0  0
    3.8015   -0.0705    0.0000 H   0  0  0  0  0  0  0  0  0  0  0  0
   10.5748   -2.5421    0.0000 H   0  0  0  0  0  0  0  0  0  0  0  0
    3.0957   -1.0389    0.0000 H   0  0  0  0  0  0  0  0  0  0  0  0
    4.8038   -3.2650    0.0000 H   0  0  0  0  0  0  0  0  0  0  0  0
    1.8104   -2.0251    0.0000 H   0  0  0  0  0  0  0  0  0  0  0  0
    3.5186   -4.2512    0.0000 H   0  0  0  0  0  0  0  0  0  0  0  0
    2.0000    0.5944    0.0000 H   0  0  0  0  0  0  0  0  0  0  0  0
    2.0219   -3.6312    0.0000 H   0  0  0  0  0  0  0  0  0  0  0  0
 16  1  1  6  0  0  0
 17  2  1  6  0  0  0
  3 19  2  0  0  0  0
  4 20  2  0  0  0  0
  5 23  1  0  0  0  0
  5 63  1  0  0  0  0
  6 25  2  0  0  0  0
  7 28  2  0  0  0  0
  8 31  2  0  0  0  0
  9 33  1  0  0  0  0
  9 68  1  0  0  0  0
 10 15  1  0  0  0  0
 10 18  1  0  0  0  0
 10 20  1  0  0  0  0
 11 19  1  0  0  0  0
 11 22  1  0  0  0  0
 11 45  1  0  0  0  0
 12 21  1  0  0  0  0
 12 28  1  0  0  0  0
 12 49  1  0  0  0  0
 13 25  1  0  0  0  0
 13 29  1  0  0  0  0
 13 56  1  0  0  0  0
 14 26  1  0  0  0  0
 14 31  1  0  0  0  0
 14 57  1  0  0  0  0
 15 16  1  0  0  0  0
 15 19  1  0  0  0  0
 15 39  1  1  0  0  0
 16 17  1  0  0  0  0
 16 40  1  0  0  0  0
 17 18  1  0  0  0  0
 17 41  1  0  0  0  0
 18 42  1  0  0  0  0
 18 43  1  0  0  0  0
 20 21  1  0  0  0  0
 21 23  1  6  0  0  0
 21 44  1  0  0  0  0
 22 24  1  6  0  0  0
 22 25  1  0  0  0  0
 22 46  1  0  0  0  0
 23 47  1  0  0  0  0
 23 48  1  0  0  0  0
 24 30  1  0  0  0  0
 24 50  1  0  0  0  0
 24 51  1  0  0  0  0
 26 27  1  0  0  0  0
 26 32  1  6  0  0  0
 26 52  1  0  0  0  0
 27 28  1  0  0  0  0
 27 53  1  0  0  0  0
 27 54  1  0  0  0  0
 29 31  1  0  0  0  0
 29 33  1  6  0  0  0
 29 55  1  0  0  0  0
 30 58  1  0  0  0  0
 30 59  1  0  0  0  0
 30 60  1  0  0  0  0
 32 34  2  0  0  0  0
 32 35  1  0  0  0  0
 33 61  1  0  0  0  0
 33 62  1  0  0  0  0
 34 36  1  0  0  0  0
 34 64  1  0  0  0  0
 35 37  2  0  0  0  0
 35 65  1  0  0  0  0
 36 38  2  0  0  0  0
 36 66  1  0  0  0  0
 37 38  1  0  0  0  0
 37 67  1  0  0  0  0
 38 69  1  0  0  0  0
M  END
> <PUBCHEM_COMPOUND_CID>
57134655

> <PUBCHEM_COMPOUND_CANONICALIZED>
1

> <PUBCHEM_CACTVS_COMPLEXITY>
903

> <PUBCHEM_CACTVS_HBOND_ACCEPTOR>
7

> <PUBCHEM_CACTVS_HBOND_DONOR>
6

> <PUBCHEM_CACTVS_ROTATABLE_BOND>
4

> <PUBCHEM_CACTVS_SUBSKEYS>
AAADceB7uAAGAAAAAAAAAAAAAAAAAWAAAAAwAAAAAAAAAAABAAAAHgIQCAAADCvhmEYyAIPAAgCIAiFSEACCAAAgAAAIiMGIBogKcD6B0THUYAhitgCYiAcYiYCOAAAAAAAAAAAAAAAAAAAAAAAAAAAAAA==

> <PUBCHEM_IUPAC_OPENEYE_NAME>
(3S,7R,10S,13S,16R,17S,18R)-17,18-dichloro-13-ethyl-3,10-bis(hydroxymethyl)-7-phenyl-1,4,8,11,14-pentazabicyclo[14.3.0]nonadecane-2,5,9,12,15-pentone

> <PUBCHEM_IUPAC_CAS_NAME>
(3S,7R,10S,13S,16R,17S,18R)-17,18-dichloro-13-ethyl-3,10-bis(hydroxymethyl)-7-phenyl-1,4,8,11,14-pentazabicyclo[14.3.0]nonadecane-2,5,9,12,15-pentone

> <PUBCHEM_IUPAC_NAME_MARKUP>
(3<I>S</I>,7<I>R</I>,10<I>S</I>,13<I>S</I>,16<I>R</I>,17<I>S</I>,18<I>R</I>)-17,18-dichloro-13-ethyl-3,10-bis(hydroxymethyl)-7-phenyl-1,4,8,11,14-pentazabicyclo[14.3.0]nonadecane-2,5,9,12,15-pentone

> <PUBCHEM_IUPAC_NAME>
(3S,7R,10S,13S,16R,17S,18R)-17,18-dichloro-13-ethyl-3,10-bis(hydroxymethyl)-7-phenyl-1,4,8,11,14-pentazabicyclo[14.3.0]nonadecane-2,5,9,12,15-pentone

> <PUBCHEM_IUPAC_SYSTEMATIC_NAME>
(3S,7R,10S,13S,16R,17S,18R)-17,18-bis(chloranyl)-13-ethyl-3,10-bis(hydroxymethyl)-7-phenyl-1,4,8,11,14-pentazabicyclo[14.3.0]nonadecane-2,5,9,12,15-pentone

> <PUBCHEM_IUPAC_TRADITIONAL_NAME>
(3S,7R,10S,13S,16R,17S,18R)-17,18-dichloro-13-ethyl-3,10-dimethylol-7-phenyl-1,4,8,11,14-pentazabicyclo[14.3.0]nonadecane-2,5,9,12,15-pentone

> <PUBCHEM_IUPAC_INCHI>
InChI=1S/C24H31Cl2N5O7/c1-2-14-21(35)30-16(10-32)22(36)29-15(12-6-4-3-5-7-12)8-18(34)27-17(11-33)24(38)31-9-13(25)19(26)20(31)23(37)28-14/h3-7,13-17,19-20,32-33H,2,8-11H2,1H3,(H,27,34)(H,28,37)(H,29,36)(H,30,35)/t13-,14+,15-,16+,17+,19-,20+/m1/s1

> <PUBCHEM_IUPAC_INCHIKEY>
PMBVHCCVEPYDSN-BADCMNFISA-N

> <PUBCHEM_XLOGP3_AA>
0.2

> <PUBCHEM_EXACT_MASS>
571.1600537

> <PUBCHEM_MOLECULAR_FORMULA>
C24H31Cl2N5O7

> <PUBCHEM_MOLECULAR_WEIGHT>
572.4

> <PUBCHEM_SMILES>
CC[C@H]1C(=O)N[C@H](C(=O)N[C@H](CC(=O)N[C@H](C(=O)N2C[C@H]([C@H]([C@H]2C(=O)N1)Cl)Cl)CO)C3=CC=CC=C3)CO

> <PUBCHEM_CONNECTIVITY_SMILES>
CCC1C(=O)NC(C(=O)NC(CC(=O)NC(C(=O)N2CC(C(C2C(=O)N1)Cl)Cl)CO)C3=CC=CC=C3)CO

> <PUBCHEM_CACTVS_TPSA>
177

> <PUBCHEM_MONOISOTOPIC_WEIGHT>
571.1600537

> <PUBCHEM_TOTAL_CHARGE>
0

> <PUBCHEM_HEAVY_ATOM_COUNT>
38

> <PUBCHEM_ATOM_DEF_STEREO_COUNT>
7

> <PUBCHEM_ATOM_UDEF_STEREO_COUNT>
0

> <PUBCHEM_BOND_DEF_STEREO_COUNT>
0

> <PUBCHEM_BOND_UDEF_STEREO_COUNT>
0

> <PUBCHEM_ISOTOPIC_ATOM_COUNT>
0

> <PUBCHEM_COMPONENT_COUNT>
1

> <PUBCHEM_CACTVS_TAUTO_COUNT>
-1

> <PUBCHEM_COORDINATE_TYPE>
1
5
255

> <PUBCHEM_BONDANNOTATIONS>
16  1  6
15  39  5
17  2  6
21  23  6
22  24  6
26  32  6
29  33  6
32  34  8
32  35  8
34  36  8
35  37  8
36  38  8
37  38  8

$$$$
