MODEL 1
REMARK VINA RESULT:    -8.432      0.000      0.000
REMARK INTER + INTRA:         -12.416
REMARK INTER:                 -12.168
REMARK INTRA:                  -0.248
REMARK UNBOUND:                -1.027
REMARK  7 active torsions:
REMARK  status: ('A' for Active; 'I' for Inactive)
REMARK    1  A    between atoms: O_3  and  C_13 
REMARK    2  A    between atoms: O_6  and  C_22 
REMARK    3  A    between atoms: N_8  and  CA_17 
REMARK       I    between atoms: N_8  and  C_31 
REMARK    4  A    between atoms: C_14  and  C_31 
REMARK    5  A    between atoms: CA_17  and  CB_20 
REMARK    6  A    between atoms: CA_17  and  C_22 
REMARK    7  A    between atoms: CB_20  and  CG_21 
ROOT
HETATM    1 CL   UNL     1      11.204 -10.985  -1.508  1.00  0.00    -0.084 Cl
HETATM    2  O   UNL     1      13.960  -6.660   0.011  1.00  0.00    -0.312 OA
HETATM    3  O   UNL     1      12.476  -4.951  -0.067  1.00  0.00    -0.259 OA
HETATM    4  C   UNL     1      13.376  -8.861  -0.837  1.00  0.00     0.073 C 
HETATM    5  C   UNL     1      14.162  -8.078   0.206  1.00  0.00     0.132 C 
HETATM    6  C   UNL     1      11.939  -8.454  -0.724  1.00  0.00    -0.015 A 
HETATM    7  C   UNL     1      11.624  -7.137  -0.366  1.00  0.00     0.081 A 
HETATM    8  C   UNL     1      10.288  -6.731  -0.278  1.00  0.00     0.098 A 
HETATM    9  C   UNL     1       9.268  -7.641  -0.550  1.00  0.00     0.067 A 
HETATM   10  C   UNL     1      10.908  -9.355  -1.010  1.00  0.00     0.042 A 
HETATM   11  C   UNL     1      12.705  -6.152  -0.120  1.00  0.00     0.297 C 
HETATM   12  C   UNL     1      15.656  -8.350   0.095  1.00  0.00     0.040 C 
HETATM   13  C   UNL     1       9.576  -8.950  -0.917  1.00  0.00     0.044 A 
ENDROOT
BRANCH   9  14
HETATM   14  C   ACE A   0       7.867  -7.248  -0.462  1.00  0.00     0.255 C 
HETATM   15  O   UNL     1       7.244  -6.907  -1.481  1.00  0.00    -0.268 OA
HETATM   16  N   UNL     1       7.275  -7.299   0.805  1.00  0.00    -0.342 N 
HETATM   17  H   UNL     1       7.810  -7.610   1.608  1.00  0.00     0.163 HD
BRANCH  16  18
HETATM   18  CA  UNL     1       5.890  -6.963   1.050  1.00  0.00     0.186 C 
BRANCH  18  19
HETATM   19  CB  UNL     1       5.472  -7.349   2.476  1.00  0.00     0.074 C 
BRANCH  19  20
HETATM   20  CG  UNL     1       6.121  -6.487   3.532  1.00  0.00    -0.056 A 
HETATM   21  CD1 UNL     1       5.329  -5.659   4.313  1.00  0.00     0.007 A 
HETATM   22  CE1 UNL     1       5.929  -4.862   5.289  1.00  0.00     0.001 A 
HETATM   23  CZ  UNL     1       7.311  -4.905   5.472  1.00  0.00     0.000 A 
HETATM   24  CE2 UNL     1       8.094  -5.744   4.679  1.00  0.00     0.001 A 
HETATM   25  CD2 UNL     1       7.495  -6.539   3.703  1.00  0.00     0.007 A 
ENDBRANCH  19  20
ENDBRANCH  18  19
BRANCH  18  26
HETATM   26  C   UNL     1       5.635  -5.481   0.817  1.00  0.00     0.163 C 
HETATM   27  OXT UNL     1       6.538  -4.660   0.700  1.00  0.00    -0.648 OA
BRANCH  26  28
HETATM   28  O   UNL     1       4.328  -5.133   0.742  1.00  0.00    -0.775 OA
HETATM   29  H   UNL     1       4.153  -4.523  -0.006  1.00  0.00     0.167 HD
ENDBRANCH  26  28
ENDBRANCH  18  26
ENDBRANCH  16  18
ENDBRANCH   9  14
BRANCH   8  30
HETATM   30  O   UNL     1       9.946  -5.459   0.083  1.00  0.00    -0.359 OA
HETATM   31  H   UNL     1       8.994  -5.317  -0.032  1.00  0.00     0.217 HD
ENDBRANCH   8  30
TORSDOF 7
ENDMDL
MODEL 2
REMARK VINA RESULT:    -8.031      2.550      7.443
REMARK INTER + INTRA:         -11.875
REMARK INTER:                 -11.306
REMARK INTRA:                  -0.569
REMARK UNBOUND:                -1.027
REMARK  7 active torsions:
REMARK  status: ('A' for Active; 'I' for Inactive)
REMARK    1  A    between atoms: O_3  and  C_13 
REMARK    2  A    between atoms: O_6  and  C_22 
REMARK    3  A    between atoms: N_8  and  CA_17 
REMARK       I    between atoms: N_8  and  C_31 
REMARK    4  A    between atoms: C_14  and  C_31 
REMARK    5  A    between atoms: CA_17  and  CB_20 
REMARK    6  A    between atoms: CA_17  and  C_22 
REMARK    7  A    between atoms: CB_20  and  CG_21 
ROOT
HETATM    1 CL   UNL     1       4.386  -7.973   1.628  1.00  0.00    -0.084 Cl
HETATM    2  O   UNL     1       6.576  -5.172   5.623  1.00  0.00    -0.312 OA
HETATM    3  O   UNL     1       8.794  -5.120   5.167  1.00  0.00    -0.259 OA
HETATM    4  C   UNL     1       5.063  -6.542   4.307  1.00  0.00     0.073 C 
HETATM    5  C   UNL     1       5.234  -5.249   5.091  1.00  0.00     0.132 C 
HETATM    6  C   UNL     1       6.116  -6.571   3.241  1.00  0.00    -0.015 A 
HETATM    7  C   UNL     1       7.368  -6.000   3.498  1.00  0.00     0.081 A 
HETATM    8  C   UNL     1       8.373  -6.037   2.526  1.00  0.00     0.098 A 
HETATM    9  C   UNL     1       8.126  -6.649   1.297  1.00  0.00     0.067 A 
HETATM   10  C   UNL     1       5.883  -7.197   2.012  1.00  0.00     0.042 A 
HETATM   11  C   UNL     1       7.652  -5.387   4.819  1.00  0.00     0.297 C 
HETATM   12  C   UNL     1       4.269  -5.181   6.266  1.00  0.00     0.040 C 
HETATM   13  C   UNL     1       6.885  -7.230   1.041  1.00  0.00     0.044 A 
ENDROOT
BRANCH   9  14
HETATM   14  C   ACE A   0       9.152  -6.700   0.264  1.00  0.00     0.255 C 
HETATM   15  O   UNL     1       8.854  -6.514  -0.928  1.00  0.00    -0.268 OA
HETATM   16  N   UNL     1      10.464  -6.941   0.686  1.00  0.00    -0.342 N 
HETATM   17  H   UNL     1      10.670  -7.059   1.672  1.00  0.00     0.163 HD
BRANCH  16  18
HETATM   18  CA  UNL     1      11.593  -6.997  -0.216  1.00  0.00     0.186 C 
BRANCH  18  19
HETATM   19  CB  UNL     1      11.362  -8.028  -1.329  1.00  0.00     0.074 C 
BRANCH  19  20
HETATM   20  CG  UNL     1      11.871  -9.403  -0.971  1.00  0.00    -0.056 A 
HETATM   21  CD1 UNL     1      11.013 -10.489  -1.057  1.00  0.00     0.007 A 
HETATM   22  CE1 UNL     1      11.485 -11.760  -0.727  1.00  0.00     0.001 A 
HETATM   23  CZ  UNL     1      12.806 -11.929  -0.316  1.00  0.00     0.000 A 
HETATM   24  CE2 UNL     1      13.658 -10.827  -0.236  1.00  0.00     0.001 A 
HETATM   25  CD2 UNL     1      13.188  -9.556  -0.565  1.00  0.00     0.007 A 
ENDBRANCH  19  20
ENDBRANCH  18  19
BRANCH  18  26
HETATM   26  C   UNL     1      11.876  -5.631  -0.824  1.00  0.00     0.163 C 
HETATM   27  OXT UNL     1      12.524  -4.765  -0.247  1.00  0.00    -0.648 OA
BRANCH  26  28
HETATM   28  O   UNL     1      11.361  -5.442  -2.063  1.00  0.00    -0.775 OA
HETATM   29  H   UNL     1      11.085  -4.511  -2.207  1.00  0.00     0.167 HD
ENDBRANCH  26  28
ENDBRANCH  18  26
ENDBRANCH  16  18
ENDBRANCH   9  14
BRANCH   8  30
HETATM   30  O   UNL     1       9.599  -5.476   2.737  1.00  0.00    -0.359 OA
HETATM   31  H   UNL     1       9.770  -4.776   2.088  1.00  0.00     0.217 HD
ENDBRANCH   8  30
TORSDOF 7
ENDMDL
MODEL 3
REMARK VINA RESULT:    -8.021      9.592     11.534
REMARK INTER + INTRA:         -11.861
REMARK INTER:                 -10.939
REMARK INTRA:                  -0.922
REMARK UNBOUND:                -1.027
REMARK  7 active torsions:
REMARK  status: ('A' for Active; 'I' for Inactive)
REMARK    1  A    between atoms: O_3  and  C_13 
REMARK    2  A    between atoms: O_6  and  C_22 
REMARK    3  A    between atoms: N_8  and  CA_17 
REMARK       I    between atoms: N_8  and  C_31 
REMARK    4  A    between atoms: C_14  and  C_31 
REMARK    5  A    between atoms: CA_17  and  CB_20 
REMARK    6  A    between atoms: CA_17  and  C_22 
REMARK    7  A    between atoms: CB_20  and  CG_21 
ROOT
HETATM    1 CL   UNL     1      10.639   1.922  10.213  1.00  0.00    -0.084 Cl
HETATM    2  O   UNL     1      14.932   2.549   7.086  1.00  0.00    -0.312 OA
HETATM    3  O   UNL     1      14.125   2.602   4.970  1.00  0.00    -0.259 OA
HETATM    4  C   UNL     1      13.486   2.007   8.961  1.00  0.00     0.073 C 
HETATM    5  C   UNL     1      14.680   2.821   8.483  1.00  0.00     0.132 C 
HETATM    6  C   UNL     1      12.322   2.347   8.080  1.00  0.00    -0.015 A 
HETATM    7  C   UNL     1      12.546   2.645   6.731  1.00  0.00     0.081 A 
HETATM    8  C   UNL     1      11.472   2.941   5.886  1.00  0.00     0.098 A 
HETATM    9  C   UNL     1      10.172   2.937   6.391  1.00  0.00     0.067 A 
HETATM   10  C   UNL     1      11.013   2.329   8.574  1.00  0.00     0.042 A 
HETATM   11  C   UNL     1      13.922   2.607   6.177  1.00  0.00     0.297 C 
HETATM   12  C   UNL     1      15.942   2.462   9.257  1.00  0.00     0.040 C 
HETATM   13  C   UNL     1       9.943   2.629   7.731  1.00  0.00     0.044 A 
ENDROOT
BRANCH   9  14
HETATM   14  C   ACE A   0       9.033   3.246   5.537  1.00  0.00     0.255 C 
HETATM   15  O   UNL     1       8.763   4.425   5.250  1.00  0.00    -0.268 OA
HETATM   16  N   UNL     1       8.294   2.162   5.052  1.00  0.00    -0.342 N 
HETATM   17  H   UNL     1       8.564   1.213   5.286  1.00  0.00     0.163 HD
BRANCH  16  18
HETATM   18  CA  UNL     1       7.153   2.305   4.175  1.00  0.00     0.186 C 
BRANCH  18  19
HETATM   19  CB  UNL     1       7.266   1.369   2.964  1.00  0.00     0.074 C 
BRANCH  19  20
HETATM   20  CG  UNL     1       8.388   1.750   2.029  1.00  0.00    -0.056 A 
HETATM   21  CD1 UNL     1       8.101   2.483   0.887  1.00  0.00     0.007 A 
HETATM   22  CE1 UNL     1       9.138   2.835   0.023  1.00  0.00     0.001 A 
HETATM   23  CZ  UNL     1      10.447   2.451   0.311  1.00  0.00     0.000 A 
HETATM   24  CE2 UNL     1      10.721   1.714   1.465  1.00  0.00     0.001 A 
HETATM   25  CD2 UNL     1       9.684   1.361   2.328  1.00  0.00     0.007 A 
ENDBRANCH  19  20
ENDBRANCH  18  19
BRANCH  18  26
HETATM   26  C   UNL     1       5.853   2.036   4.920  1.00  0.00     0.163 C 
HETATM   27  OXT UNL     1       5.750   2.129   6.138  1.00  0.00    -0.648 OA
BRANCH  26  28
HETATM   28  O   UNL     1       4.807   1.688   4.131  1.00  0.00    -0.775 OA
HETATM   29  H   UNL     1       3.946   1.920   4.541  1.00  0.00     0.167 HD
ENDBRANCH  26  28
ENDBRANCH  18  26
ENDBRANCH  16  18
ENDBRANCH   9  14
BRANCH   8  30
HETATM   30  O   UNL     1      11.657   3.252   4.570  1.00  0.00    -0.359 OA
HETATM   31  H   UNL     1      12.493   2.883   4.246  1.00  0.00     0.217 HD
ENDBRANCH   8  30
TORSDOF 7
ENDMDL
MODEL 4
REMARK VINA RESULT:    -8.007      9.835     11.362
REMARK INTER + INTRA:         -11.842
REMARK INTER:                 -11.540
REMARK INTRA:                  -0.302
REMARK UNBOUND:                -1.027
REMARK  7 active torsions:
REMARK  status: ('A' for Active; 'I' for Inactive)
REMARK    1  A    between atoms: O_3  and  C_13 
REMARK    2  A    between atoms: O_6  and  C_22 
REMARK    3  A    between atoms: N_8  and  CA_17 
REMARK       I    between atoms: N_8  and  C_31 
REMARK    4  A    between atoms: C_14  and  C_31 
REMARK    5  A    between atoms: CA_17  and  CB_20 
REMARK    6  A    between atoms: CA_17  and  C_22 
REMARK    7  A    between atoms: CB_20  and  CG_21 
ROOT
HETATM    1 CL   UNL     1      10.832   2.302  10.082  1.00  0.00    -0.084 Cl
HETATM    2  O   UNL     1      15.276   2.791   7.145  1.00  0.00    -0.312 OA
HETATM    3  O   UNL     1      14.601   2.534   4.998  1.00  0.00    -0.259 OA
HETATM    4  C   UNL     1      13.744   2.401   8.990  1.00  0.00     0.073 C 
HETATM    5  C   UNL     1      14.923   3.218   8.480  1.00  0.00     0.132 C 
HETATM    6  C   UNL     1      12.622   2.559   8.010  1.00  0.00    -0.015 A 
HETATM    7  C   UNL     1      12.915   2.701   6.648  1.00  0.00     0.081 A 
HETATM    8  C   UNL     1      11.881   2.826   5.714  1.00  0.00     0.098 A 
HETATM    9  C   UNL     1      10.554   2.807   6.142  1.00  0.00     0.067 A 
HETATM   10  C   UNL     1      11.287   2.525   8.428  1.00  0.00     0.042 A 
HETATM   11  C   UNL     1      14.323   2.676   6.181  1.00  0.00     0.297 C 
HETATM   12  C   UNL     1      16.150   3.033   9.362  1.00  0.00     0.040 C 
HETATM   13  C   UNL     1      10.258   2.655   7.496  1.00  0.00     0.044 A 
ENDROOT
BRANCH   9  14
HETATM   14  C   ACE A   0       9.457   2.940   5.194  1.00  0.00     0.255 C 
HETATM   15  O   UNL     1       8.812   4.000   5.122  1.00  0.00    -0.268 OA
HETATM   16  N   UNL     1       9.194   1.839   4.372  1.00  0.00    -0.342 N 
HETATM   17  H   UNL     1       9.763   1.001   4.442  1.00  0.00     0.163 HD
BRANCH  16  18
HETATM   18  CA  UNL     1       8.156   1.825   3.366  1.00  0.00     0.186 C 
BRANCH  18  19
HETATM   19  CB  UNL     1       7.025   2.799   3.725  1.00  0.00     0.074 C 
BRANCH  19  20
HETATM   20  CG  UNL     1       5.855   2.120   4.396  1.00  0.00    -0.056 A 
HETATM   21  CD1 UNL     1       4.791   1.681   3.623  1.00  0.00     0.007 A 
HETATM   22  CE1 UNL     1       3.709   1.054   4.244  1.00  0.00     0.001 A 
HETATM   23  CZ  UNL     1       3.707   0.874   5.626  1.00  0.00     0.000 A 
HETATM   24  CE2 UNL     1       4.786   1.320   6.390  1.00  0.00     0.001 A 
HETATM   25  CD2 UNL     1       5.866   1.947   5.771  1.00  0.00     0.007 A 
ENDBRANCH  19  20
ENDBRANCH  18  19
BRANCH  18  26
HETATM   26  C   UNL     1       8.718   2.166   1.993  1.00  0.00     0.163 C 
HETATM   27  OXT UNL     1       9.828   1.806   1.619  1.00  0.00    -0.648 OA
BRANCH  26  28
HETATM   28  O   UNL     1       7.892   2.897   1.206  1.00  0.00    -0.775 OA
HETATM   29  H   UNL     1       8.358   3.652   0.788  1.00  0.00     0.167 HD
ENDBRANCH  26  28
ENDBRANCH  18  26
ENDBRANCH  16  18
ENDBRANCH   9  14
BRANCH   8  30
HETATM   30  O   UNL     1      12.132   2.982   4.381  1.00  0.00    -0.359 OA
HETATM   31  H   UNL     1      12.047   2.135   3.917  1.00  0.00     0.217 HD
ENDBRANCH   8  30
TORSDOF 7
ENDMDL
MODEL 5
REMARK VINA RESULT:    -7.797      2.068      2.548
REMARK INTER + INTRA:         -11.560
REMARK INTER:                 -11.354
REMARK INTRA:                  -0.206
REMARK UNBOUND:                -1.027
REMARK  7 active torsions:
REMARK  status: ('A' for Active; 'I' for Inactive)
REMARK    1  A    between atoms: O_3  and  C_13 
REMARK    2  A    between atoms: O_6  and  C_22 
REMARK    3  A    between atoms: N_8  and  CA_17 
REMARK       I    between atoms: N_8  and  C_31 
REMARK    4  A    between atoms: C_14  and  C_31 
REMARK    5  A    between atoms: CA_17  and  CB_20 
REMARK    6  A    between atoms: CA_17  and  C_22 
REMARK    7  A    between atoms: CB_20  and  CG_21 
ROOT
HETATM    1 CL   UNL     1      13.233  -4.949  -0.734  1.00  0.00    -0.084 Cl
HETATM    2  O   UNL     1      14.195 -10.200  -1.046  1.00  0.00    -0.312 OA
HETATM    3  O   UNL     1      12.263 -11.198  -0.412  1.00  0.00    -0.259 OA
HETATM    4  C   UNL     1      14.481  -7.796  -0.850  1.00  0.00     0.073 C 
HETATM    5  C   UNL     1      14.816  -9.045  -1.653  1.00  0.00     0.132 C 
HETATM    6  C   UNL     1      12.989  -7.687  -0.779  1.00  0.00    -0.015 A 
HETATM    7  C   UNL     1      12.217  -8.854  -0.725  1.00  0.00     0.081 A 
HETATM    8  C   UNL     1      10.824  -8.774  -0.634  1.00  0.00     0.098 A 
HETATM    9  C   UNL     1      10.202  -7.526  -0.596  1.00  0.00     0.067 A 
HETATM   10  C   UNL     1      12.357  -6.440  -0.724  1.00  0.00     0.042 A 
HETATM   11  C   UNL     1      12.875 -10.184  -0.720  1.00  0.00     0.297 C 
HETATM   12  C   UNL     1      16.318  -9.296  -1.689  1.00  0.00     0.040 C 
HETATM   13  C   UNL     1      10.967  -6.362  -0.638  1.00  0.00     0.044 A 
ENDROOT
BRANCH   9  14
HETATM   14  C   ACE A   0       8.752  -7.412  -0.507  1.00  0.00     0.255 C 
HETATM   15  O   UNL     1       8.077  -7.157  -1.518  1.00  0.00    -0.268 OA
HETATM   16  N   UNL     1       8.178  -7.623   0.751  1.00  0.00    -0.342 N 
HETATM   17  H   UNL     1       8.761  -7.857   1.548  1.00  0.00     0.163 HD
BRANCH  16  18
HETATM   18  CA  UNL     1       6.754  -7.567   0.996  1.00  0.00     0.186 C 
BRANCH  18  19
HETATM   19  CB  UNL     1       6.419  -8.031   2.420  1.00  0.00     0.074 C 
BRANCH  19  20
HETATM   20  CG  UNL     1       6.607  -6.946   3.452  1.00  0.00    -0.056 A 
HETATM   21  CD1 UNL     1       5.494  -6.318   3.988  1.00  0.00     0.007 A 
HETATM   22  CE1 UNL     1       5.669  -5.315   4.943  1.00  0.00     0.001 A 
HETATM   23  CZ  UNL     1       6.953  -4.953   5.348  1.00  0.00     0.000 A 
HETATM   24  CE2 UNL     1       8.064  -5.595   4.799  1.00  0.00     0.001 A 
HETATM   25  CD2 UNL     1       7.890  -6.597   3.845  1.00  0.00     0.007 A 
ENDBRANCH  19  20
ENDBRANCH  18  19
BRANCH  18  26
HETATM   26  C   UNL     1       6.212  -6.164   0.767  1.00  0.00     0.163 C 
HETATM   27  OXT UNL     1       6.900  -5.156   0.885  1.00  0.00    -0.648 OA
BRANCH  26  28
HETATM   28  O   UNL     1       4.905  -6.109   0.414  1.00  0.00    -0.775 OA
HETATM   29  H   UNL     1       4.319  -6.443   1.126  1.00  0.00     0.167 HD
ENDBRANCH  26  28
ENDBRANCH  18  26
ENDBRANCH  16  18
ENDBRANCH   9  14
BRANCH   8  30
HETATM   30  O   UNL     1      10.040  -9.892  -0.596  1.00  0.00    -0.359 OA
HETATM   31  H   UNL     1       9.868 -10.156   0.321  1.00  0.00     0.217 HD
ENDBRANCH   8  30
TORSDOF 7
ENDMDL
MODEL 6
REMARK VINA RESULT:    -7.715      9.511     11.173
REMARK INTER + INTRA:         -11.449
REMARK INTER:                 -10.474
REMARK INTRA:                  -0.975
REMARK UNBOUND:                -1.027
REMARK  7 active torsions:
REMARK  status: ('A' for Active; 'I' for Inactive)
REMARK    1  A    between atoms: O_3  and  C_13 
REMARK    2  A    between atoms: O_6  and  C_22 
REMARK    3  A    between atoms: N_8  and  CA_17 
REMARK       I    between atoms: N_8  and  C_31 
REMARK    4  A    between atoms: C_14  and  C_31 
REMARK    5  A    between atoms: CA_17  and  CB_20 
REMARK    6  A    between atoms: CA_17  and  C_22 
REMARK    7  A    between atoms: CB_20  and  CG_21 
ROOT
HETATM    1 CL   UNL     1      11.006  -3.118   9.105  1.00  0.00    -0.084 Cl
HETATM    2  O   UNL     1      15.297  -0.353  10.699  1.00  0.00    -0.312 OA
HETATM    3  O   UNL     1      15.775   1.047   8.984  1.00  0.00    -0.259 OA
HETATM    4  C   UNL     1      13.600  -2.076  10.470  1.00  0.00     0.073 C 
HETATM    5  C   UNL     1      14.277  -1.089  11.411  1.00  0.00     0.132 C 
HETATM    6  C   UNL     1      13.059  -1.299   9.309  1.00  0.00    -0.015 A 
HETATM    7  C   UNL     1      13.751  -0.170   8.854  1.00  0.00     0.081 A 
HETATM    8  C   UNL     1      13.275   0.555   7.757  1.00  0.00     0.098 A 
HETATM    9  C   UNL     1      12.107   0.149   7.113  1.00  0.00     0.067 A 
HETATM   10  C   UNL     1      11.897  -1.708   8.645  1.00  0.00     0.042 A 
HETATM   11  C   UNL     1      15.018   0.240   9.508  1.00  0.00     0.297 C 
HETATM   12  C   UNL     1      14.951  -1.804  12.574  1.00  0.00     0.040 C 
HETATM   13  C   UNL     1      11.420  -0.981   7.554  1.00  0.00     0.044 A 
ENDROOT
BRANCH   9  14
HETATM   14  C   ACE A   0      11.585   0.887   5.970  1.00  0.00     0.255 C 
HETATM   15  O   UNL     1      12.263   1.009   4.936  1.00  0.00    -0.268 OA
HETATM   16  N   UNL     1      10.296   1.416   6.095  1.00  0.00    -0.342 N 
HETATM   17  H   UNL     1       9.763   1.269   6.946  1.00  0.00     0.163 HD
BRANCH  16  18
HETATM   18  CA  UNL     1       9.631   2.151   5.042  1.00  0.00     0.186 C 
BRANCH  18  19
HETATM   19  CB  UNL     1       8.996   1.198   4.019  1.00  0.00     0.074 C 
BRANCH  19  20
HETATM   20  CG  UNL     1       9.148   1.677   2.596  1.00  0.00    -0.056 A 
HETATM   21  CD1 UNL     1      10.415   1.760   2.039  1.00  0.00     0.007 A 
HETATM   22  CE1 UNL     1      10.555   2.203   0.723  1.00  0.00     0.001 A 
HETATM   23  CZ  UNL     1       9.428   2.556  -0.018  1.00  0.00     0.000 A 
HETATM   24  CE2 UNL     1       8.159   2.466   0.556  1.00  0.00     0.001 A 
HETATM   25  CD2 UNL     1       8.019   2.025   1.871  1.00  0.00     0.007 A 
ENDBRANCH  19  20
ENDBRANCH  18  19
BRANCH  18  26
HETATM   26  C   UNL     1       8.571   3.084   5.609  1.00  0.00     0.163 C 
HETATM   27  OXT UNL     1       7.513   2.683   6.081  1.00  0.00    -0.648 OA
BRANCH  26  28
HETATM   28  O   UNL     1       8.887   4.401   5.561  1.00  0.00    -0.775 OA
HETATM   29  H   UNL     1       8.497   4.899   6.310  1.00  0.00     0.167 HD
ENDBRANCH  26  28
ENDBRANCH  18  26
ENDBRANCH  16  18
ENDBRANCH   9  14
BRANCH   8  30
HETATM   30  O   UNL     1      13.917   1.669   7.299  1.00  0.00    -0.359 OA
HETATM   31  H   UNL     1      13.974   1.656   6.331  1.00  0.00     0.217 HD
ENDBRANCH   8  30
TORSDOF 7
ENDMDL
MODEL 7
REMARK VINA RESULT:    -7.637      9.326     10.840
REMARK INTER + INTRA:         -11.343
REMARK INTER:                 -10.296
REMARK INTRA:                  -1.046
REMARK UNBOUND:                -1.027
REMARK  7 active torsions:
REMARK  status: ('A' for Active; 'I' for Inactive)
REMARK    1  A    between atoms: O_3  and  C_13 
REMARK    2  A    between atoms: O_6  and  C_22 
REMARK    3  A    between atoms: N_8  and  CA_17 
REMARK       I    between atoms: N_8  and  C_31 
REMARK    4  A    between atoms: C_14  and  C_31 
REMARK    5  A    between atoms: CA_17  and  CB_20 
REMARK    6  A    between atoms: CA_17  and  C_22 
REMARK    7  A    between atoms: CB_20  and  CG_21 
ROOT
HETATM    1 CL   UNL     1      14.415   3.207   4.281  1.00  0.00    -0.084 Cl
HETATM    2  O   UNL     1      13.655   1.970   9.428  1.00  0.00    -0.312 OA
HETATM    3  O   UNL     1      11.431   1.591   9.627  1.00  0.00    -0.259 OA
HETATM    4  C   UNL     1      14.593   2.848   7.366  1.00  0.00     0.073 C 
HETATM    5  C   UNL     1      14.815   1.938   8.566  1.00  0.00     0.132 C 
HETATM    6  C   UNL     1      13.340   2.397   6.678  1.00  0.00    -0.015 A 
HETATM    7  C   UNL     1      12.288   1.876   7.441  1.00  0.00     0.081 A 
HETATM    8  C   UNL     1      11.101   1.472   6.821  1.00  0.00     0.098 A 
HETATM    9  C   UNL     1      10.966   1.591   5.439  1.00  0.00     0.067 A 
HETATM   10  C   UNL     1      13.189   2.528   5.294  1.00  0.00     0.042 A 
HETATM   11  C   UNL     1      12.408   1.789   8.917  1.00  0.00     0.297 C 
HETATM   12  C   UNL     1      16.014   2.388   9.389  1.00  0.00     0.040 C 
HETATM   13  C   UNL     1      12.006   2.120   4.676  1.00  0.00     0.044 A 
ENDROOT
BRANCH   9  14
HETATM   14  C   ACE A   0       9.743   1.174   4.764  1.00  0.00     0.255 C 
HETATM   15  O   UNL     1       9.148   0.143   5.120  1.00  0.00    -0.268 OA
HETATM   16  N   UNL     1       9.278   1.996   3.733  1.00  0.00    -0.342 N 
HETATM   17  H   UNL     1       9.777   2.846   3.491  1.00  0.00     0.163 HD
BRANCH  16  18
HETATM   18  CA  UNL     1       8.068   1.731   2.986  1.00  0.00     0.186 C 
BRANCH  18  19
HETATM   19  CB  UNL     1       6.950   2.705   3.381  1.00  0.00     0.074 C 
BRANCH  19  20
HETATM   20  CG  UNL     1       5.867   2.054   4.206  1.00  0.00    -0.056 A 
HETATM   21  CD1 UNL     1       6.036   1.936   5.577  1.00  0.00     0.007 A 
HETATM   22  CE1 UNL     1       5.034   1.334   6.340  1.00  0.00     0.001 A 
HETATM   23  CZ  UNL     1       3.878   0.859   5.723  1.00  0.00     0.000 A 
HETATM   24  CE2 UNL     1       3.722   0.985   4.342  1.00  0.00     0.001 A 
HETATM   25  CD2 UNL     1       4.723   1.586   3.579  1.00  0.00     0.007 A 
ENDBRANCH  19  20
ENDBRANCH  18  19
BRANCH  18  26
HETATM   26  C   UNL     1       8.321   1.810   1.487  1.00  0.00     0.163 C 
HETATM   27  OXT UNL     1       8.753   0.867   0.833  1.00  0.00    -0.648 OA
BRANCH  26  28
HETATM   28  O   UNL     1       8.024   3.005   0.923  1.00  0.00    -0.775 OA
HETATM   29  H   UNL     1       7.597   2.900   0.046  1.00  0.00     0.167 HD
ENDBRANCH  26  28
ENDBRANCH  18  26
ENDBRANCH  16  18
ENDBRANCH   9  14
BRANCH   8  30
HETATM   30  O   UNL     1      10.062   0.945   7.533  1.00  0.00    -0.359 OA
HETATM   31  H   UNL     1      10.282   0.902   8.477  1.00  0.00     0.217 HD
ENDBRANCH   8  30
TORSDOF 7
ENDMDL
MODEL 8
REMARK VINA RESULT:    -7.631      9.536     11.592
REMARK INTER + INTRA:         -11.334
REMARK INTER:                 -10.499
REMARK INTRA:                  -0.836
REMARK UNBOUND:                -1.027
REMARK  7 active torsions:
REMARK  status: ('A' for Active; 'I' for Inactive)
REMARK    1  A    between atoms: O_3  and  C_13 
REMARK    2  A    between atoms: O_6  and  C_22 
REMARK    3  A    between atoms: N_8  and  CA_17 
REMARK       I    between atoms: N_8  and  C_31 
REMARK    4  A    between atoms: C_14  and  C_31 
REMARK    5  A    between atoms: CA_17  and  CB_20 
REMARK    6  A    between atoms: CA_17  and  C_22 
REMARK    7  A    between atoms: CB_20  and  CG_21 
ROOT
HETATM    1 CL   UNL     1      13.845   2.877   4.477  1.00  0.00    -0.084 Cl
HETATM    2  O   UNL     1      13.597   2.490   9.805  1.00  0.00    -0.312 OA
HETATM    3  O   UNL     1      11.464   3.032  10.342  1.00  0.00    -0.259 OA
HETATM    4  C   UNL     1      14.416   2.747   7.532  1.00  0.00     0.073 C 
HETATM    5  C   UNL     1      14.489   1.931   8.815  1.00  0.00     0.132 C 
HETATM    6  C   UNL     1      12.985   2.765   7.086  1.00  0.00    -0.015 A 
HETATM    7  C   UNL     1      11.966   2.767   8.046  1.00  0.00     0.081 A 
HETATM    8  C   UNL     1      10.625   2.808   7.651  1.00  0.00     0.098 A 
HETATM    9  C   UNL     1      10.304   2.849   6.295  1.00  0.00     0.067 A 
HETATM   10  C   UNL     1      12.653   2.824   5.728  1.00  0.00     0.042 A 
HETATM   11  C   UNL     1      12.303   2.768   9.491  1.00  0.00     0.297 C 
HETATM   12  C   UNL     1      15.894   1.944   9.402  1.00  0.00     0.040 C 
HETATM   13  C   UNL     1      11.315   2.860   5.335  1.00  0.00     0.044 A 
ENDROOT
BRANCH   9  14
HETATM   14  C   ACE A   0       8.916   2.888   5.853  1.00  0.00     0.255 C 
HETATM   15  O   UNL     1       8.115   3.690   6.362  1.00  0.00    -0.268 OA
HETATM   16  N   UNL     1       8.553   2.005   4.830  1.00  0.00    -0.342 N 
HETATM   17  H   UNL     1       9.244   1.385   4.420  1.00  0.00     0.163 HD
BRANCH  16  18
HETATM   18  CA  UNL     1       7.223   1.941   4.268  1.00  0.00     0.186 C 
BRANCH  18  19
HETATM   19  CB  UNL     1       7.244   1.314   2.867  1.00  0.00     0.074 C 
BRANCH  19  20
HETATM   20  CG  UNL     1       8.526   1.588   2.119  1.00  0.00    -0.056 A 
HETATM   21  CD1 UNL     1       8.507   2.445   1.030  1.00  0.00     0.007 A 
HETATM   22  CE1 UNL     1       9.693   2.698   0.339  1.00  0.00     0.001 A 
HETATM   23  CZ  UNL     1      10.880   2.092   0.746  1.00  0.00     0.000 A 
HETATM   24  CE2 UNL     1      10.884   1.232   1.845  1.00  0.00     0.001 A 
HETATM   25  CD2 UNL     1       9.699   0.978   2.535  1.00  0.00     0.007 A 
ENDBRANCH  19  20
ENDBRANCH  18  19
BRANCH  18  26
HETATM   26  C   UNL     1       6.282   1.158   5.173  1.00  0.00     0.163 C 
HETATM   27  OXT UNL     1       6.236  -0.067   5.186  1.00  0.00    -0.648 OA
BRANCH  26  28
HETATM   28  O   UNL     1       5.498   1.919   5.973  1.00  0.00    -0.775 OA
HETATM   29  H   UNL     1       5.708   2.874   5.891  1.00  0.00     0.167 HD
ENDBRANCH  26  28
ENDBRANCH  18  26
ENDBRANCH  16  18
ENDBRANCH   9  14
BRANCH   8  30
HETATM   30  O   UNL     1       9.607   2.795   8.560  1.00  0.00    -0.359 OA
HETATM   31  H   UNL     1       9.847   3.306   9.349  1.00  0.00     0.217 HD
ENDBRANCH   8  30
TORSDOF 7
ENDMDL
MODEL 9
REMARK VINA RESULT:    -7.566      9.171     11.411
REMARK INTER + INTRA:         -11.247
REMARK INTER:                 -10.268
REMARK INTRA:                  -0.980
REMARK UNBOUND:                -1.027
REMARK  7 active torsions:
REMARK  status: ('A' for Active; 'I' for Inactive)
REMARK    1  A    between atoms: O_3  and  C_13 
REMARK    2  A    between atoms: O_6  and  C_22 
REMARK    3  A    between atoms: N_8  and  CA_17 
REMARK       I    between atoms: N_8  and  C_31 
REMARK    4  A    between atoms: C_14  and  C_31 
REMARK    5  A    between atoms: CA_17  and  CB_20 
REMARK    6  A    between atoms: CA_17  and  C_22 
REMARK    7  A    between atoms: CB_20  and  CG_21 
ROOT
HETATM    1 CL   UNL     1       6.024   1.363   3.783  1.00  0.00    -0.084 Cl
HETATM    2  O   UNL     1       9.978   1.726   0.201  1.00  0.00    -0.312 OA
HETATM    3  O   UNL     1      11.863   2.022   1.422  1.00  0.00    -0.259 OA
HETATM    4  C   UNL     1       7.789   1.765   1.253  1.00  0.00     0.073 C 
HETATM    5  C   UNL     1       8.648   1.165   0.148  1.00  0.00     0.132 C 
HETATM    6  C   UNL     1       8.481   1.508   2.557  1.00  0.00    -0.015 A 
HETATM    7  C   UNL     1       9.880   1.501   2.602  1.00  0.00     0.081 A 
HETATM    8  C   UNL     1      10.546   1.287   3.814  1.00  0.00     0.098 A 
HETATM    9  C   UNL     1       9.811   1.082   4.981  1.00  0.00     0.067 A 
HETATM   10  C   UNL     1       7.753   1.318   3.736  1.00  0.00     0.042 A 
HETATM   11  C   UNL     1      10.668   1.762   1.372  1.00  0.00     0.297 C 
HETATM   12  C   UNL     1       8.073   1.469  -1.228  1.00  0.00     0.040 C 
HETATM   13  C   UNL     1       8.417   1.101   4.943  1.00  0.00     0.044 A 
ENDROOT
BRANCH   9  14
HETATM   14  C   ACE A   0      10.476   0.852   6.257  1.00  0.00     0.255 C 
HETATM   15  O   UNL     1      11.143  -0.179   6.442  1.00  0.00    -0.268 OA
HETATM   16  N   UNL     1      10.340   1.849   7.229  1.00  0.00    -0.342 N 
HETATM   17  H   UNL     1       9.810   2.691   7.029  1.00  0.00     0.163 HD
BRANCH  16  18
HETATM   18  CA  UNL     1      10.959   1.778   8.534  1.00  0.00     0.186 C 
BRANCH  18  19
HETATM   19  CB  UNL     1      11.728   3.068   8.852  1.00  0.00     0.074 C 
BRANCH  19  20
HETATM   20  CG  UNL     1      13.195   2.977   8.509  1.00  0.00    -0.056 A 
HETATM   21  CD1 UNL     1      13.572   2.584   7.235  1.00  0.00     0.007 A 
HETATM   22  CE1 UNL     1      14.929   2.500   6.919  1.00  0.00     0.001 A 
HETATM   23  CZ  UNL     1      15.890   2.812   7.880  1.00  0.00     0.000 A 
HETATM   24  CE2 UNL     1      15.495   3.208   9.158  1.00  0.00     0.001 A 
HETATM   25  CD2 UNL     1      14.139   3.291   9.475  1.00  0.00     0.007 A 
ENDBRANCH  19  20
ENDBRANCH  18  19
BRANCH  18  26
HETATM   26  C   UNL     1       9.924   1.510   9.618  1.00  0.00     0.163 C 
HETATM   27  OXT UNL     1       9.431   2.399  10.303  1.00  0.00    -0.648 OA
BRANCH  26  28
HETATM   28  O   UNL     1       9.581   0.208   9.767  1.00  0.00    -0.775 OA
HETATM   29  H   UNL     1      10.194  -0.390   9.288  1.00  0.00     0.167 HD
ENDBRANCH  26  28
ENDBRANCH  18  26
ENDBRANCH  16  18
ENDBRANCH   9  14
BRANCH   8  30
HETATM   30  O   UNL     1      11.908   1.257   3.890  1.00  0.00    -0.359 OA
HETATM   31  H   UNL     1      12.256   0.449   3.481  1.00  0.00     0.217 HD
ENDBRANCH   8  30
TORSDOF 7
ENDMDL
MODEL 10
REMARK VINA RESULT:    -7.487      8.374     10.611
REMARK INTER + INTRA:         -11.141
REMARK INTER:                  -9.943
REMARK INTRA:                  -1.198
REMARK UNBOUND:                -1.027
REMARK  7 active torsions:
REMARK  status: ('A' for Active; 'I' for Inactive)
REMARK    1  A    between atoms: O_3  and  C_13 
REMARK    2  A    between atoms: O_6  and  C_22 
REMARK    3  A    between atoms: N_8  and  CA_17 
REMARK       I    between atoms: N_8  and  C_31 
REMARK    4  A    between atoms: C_14  and  C_31 
REMARK    5  A    between atoms: CA_17  and  CB_20 
REMARK    6  A    between atoms: CA_17  and  C_22 
REMARK    7  A    between atoms: CB_20  and  CG_21 
ROOT
HETATM    1 CL   UNL     1       5.943   1.385   3.748  1.00  0.00    -0.084 Cl
HETATM    2  O   UNL     1       9.567   1.543  -0.181  1.00  0.00    -0.312 OA
HETATM    3  O   UNL     1      11.417   2.458   0.752  1.00  0.00    -0.259 OA
HETATM    4  C   UNL     1       7.468   1.455   1.037  1.00  0.00     0.073 C 
HETATM    5  C   UNL     1       8.369   0.762   0.026  1.00  0.00     0.132 C 
HETATM    6  C   UNL     1       8.260   1.654   2.293  1.00  0.00    -0.015 A 
HETATM    7  C   UNL     1       9.635   1.904   2.205  1.00  0.00     0.081 A 
HETATM    8  C   UNL     1      10.389   2.115   3.364  1.00  0.00     0.098 A 
HETATM    9  C   UNL     1       9.767   2.079   4.611  1.00  0.00     0.067 A 
HETATM   10  C   UNL     1       7.643   1.635   3.548  1.00  0.00     0.042 A 
HETATM   11  C   UNL     1      10.294   1.988   0.879  1.00  0.00     0.297 C 
HETATM   12  C   UNL     1       7.679   0.612  -1.323  1.00  0.00     0.040 C 
HETATM   13  C   UNL     1       8.396   1.842   4.703  1.00  0.00     0.044 A 
ENDROOT
BRANCH   9  14
HETATM   14  C   ACE A   0      10.527   2.291   5.836  1.00  0.00     0.255 C 
HETATM   15  O   UNL     1      10.274   3.257   6.574  1.00  0.00    -0.268 OA
HETATM   16  N   UNL     1      11.519   1.351   6.135  1.00  0.00    -0.342 N 
HETATM   17  H   UNL     1      11.676   0.559   5.521  1.00  0.00     0.163 HD
BRANCH  16  18
HETATM   18  CA  UNL     1      12.340   1.411   7.324  1.00  0.00     0.186 C 
BRANCH  18  19
HETATM   19  CB  UNL     1      12.977   0.047   7.625  1.00  0.00     0.074 C 
BRANCH  19  20
HETATM   20  CG  UNL     1      11.963  -1.066   7.728  1.00  0.00    -0.056 A 
HETATM   21  CD1 UNL     1      11.044  -1.055   8.766  1.00  0.00     0.007 A 
HETATM   22  CE1 UNL     1      10.107  -2.084   8.860  1.00  0.00     0.001 A 
HETATM   23  CZ  UNL     1      10.100  -3.110   7.916  1.00  0.00     0.000 A 
HETATM   24  CE2 UNL     1      11.030  -3.107   6.876  1.00  0.00     0.001 A 
HETATM   25  CD2 UNL     1      11.967  -2.079   6.782  1.00  0.00     0.007 A 
ENDBRANCH  19  20
ENDBRANCH  18  19
BRANCH  18  26
HETATM   26  C   UNL     1      13.423   2.471   7.190  1.00  0.00     0.163 C 
HETATM   27  OXT UNL     1      14.465   2.286   6.570  1.00  0.00    -0.648 OA
BRANCH  26  28
HETATM   28  O   UNL     1      13.148   3.647   7.805  1.00  0.00    -0.775 OA
HETATM   29  H   UNL     1      13.486   4.414   7.296  1.00  0.00     0.167 HD
ENDBRANCH  26  28
ENDBRANCH  18  26
ENDBRANCH  16  18
ENDBRANCH   9  14
BRANCH   8  30
HETATM   30  O   UNL     1      11.734   2.346   3.314  1.00  0.00    -0.359 OA
HETATM   31  H   UNL     1      11.958   3.158   3.793  1.00  0.00     0.217 HD
ENDBRANCH   8  30
TORSDOF 7
ENDMDL
MODEL 11
REMARK VINA RESULT:    -7.395      8.928     11.383
REMARK INTER + INTRA:         -11.016
REMARK INTER:                  -9.968
REMARK INTRA:                  -1.048
REMARK UNBOUND:                -1.027
REMARK  7 active torsions:
REMARK  status: ('A' for Active; 'I' for Inactive)
REMARK    1  A    between atoms: O_3  and  C_13 
REMARK    2  A    between atoms: O_6  and  C_22 
REMARK    3  A    between atoms: N_8  and  CA_17 
REMARK       I    between atoms: N_8  and  C_31 
REMARK    4  A    between atoms: C_14  and  C_31 
REMARK    5  A    between atoms: CA_17  and  CB_20 
REMARK    6  A    between atoms: CA_17  and  C_22 
REMARK    7  A    between atoms: CB_20  and  CG_21 
ROOT
HETATM    1 CL   UNL     1       6.220   1.366   3.963  1.00  0.00    -0.084 Cl
HETATM    2  O   UNL     1       9.545   1.475  -0.224  1.00  0.00    -0.312 OA
HETATM    3  O   UNL     1      11.424   2.488   0.535  1.00  0.00    -0.259 OA
HETATM    4  C   UNL     1       7.543   1.370   1.147  1.00  0.00     0.073 C 
HETATM    5  C   UNL     1       8.394   0.664   0.102  1.00  0.00     0.132 C 
HETATM    6  C   UNL     1       8.416   1.648   2.333  1.00  0.00    -0.015 A 
HETATM    7  C   UNL     1       9.771   1.939   2.135  1.00  0.00     0.081 A 
HETATM    8  C   UNL     1      10.598   2.224   3.226  1.00  0.00     0.098 A 
HETATM    9  C   UNL     1      10.069   2.220   4.516  1.00  0.00     0.067 A 
HETATM   10  C   UNL     1       7.891   1.663   3.630  1.00  0.00     0.042 A 
HETATM   11  C   UNL     1      10.330   1.988   0.762  1.00  0.00     0.297 C 
HETATM   12  C   UNL     1       7.614   0.435  -1.186  1.00  0.00     0.040 C 
HETATM   13  C   UNL     1       8.717   1.943   4.718  1.00  0.00     0.044 A 
ENDROOT
BRANCH   9  14
HETATM   14  C   ACE A   0      10.906   2.509   5.673  1.00  0.00     0.255 C 
HETATM   15  O   UNL     1      10.501   3.268   6.570  1.00  0.00    -0.268 OA
HETATM   16  N   UNL     1      12.154   1.879   5.723  1.00  0.00    -0.342 N 
HETATM   17  H   UNL     1      12.436   1.243   4.984  1.00  0.00     0.163 HD
BRANCH  16  18
HETATM   18  CA  UNL     1      13.087   2.045   6.815  1.00  0.00     0.186 C 
BRANCH  18  19
HETATM   19  CB  UNL     1      13.013   0.862   7.791  1.00  0.00     0.074 C 
BRANCH  19  20
HETATM   20  CG  UNL     1      12.428   1.241   9.130  1.00  0.00    -0.056 A 
HETATM   21  CD1 UNL     1      11.929   0.247   9.958  1.00  0.00     0.007 A 
HETATM   22  CE1 UNL     1      11.388   0.597  11.196  1.00  0.00     0.001 A 
HETATM   23  CZ  UNL     1      11.354   1.934  11.590  1.00  0.00     0.000 A 
HETATM   24  CE2 UNL     1      11.861   2.923  10.746  1.00  0.00     0.001 A 
HETATM   25  CD2 UNL     1      12.401   2.574   9.508  1.00  0.00     0.007 A 
ENDBRANCH  19  20
ENDBRANCH  18  19
BRANCH  18  26
HETATM   26  C   UNL     1      14.511   2.204   6.301  1.00  0.00     0.163 C 
HETATM   27  OXT UNL     1      14.771   2.636   5.183  1.00  0.00    -0.648 OA
BRANCH  26  28
HETATM   28  O   UNL     1      15.477   1.837   7.177  1.00  0.00    -0.775 OA
HETATM   29  H   UNL     1      15.587   0.863   7.214  1.00  0.00     0.167 HD
ENDBRANCH  26  28
ENDBRANCH  18  26
ENDBRANCH  16  18
ENDBRANCH   9  14
BRANCH   8  30
HETATM   30  O   UNL     1      11.927   2.496   3.070  1.00  0.00    -0.359 OA
HETATM   31  H   UNL     1      12.433   1.675   2.968  1.00  0.00     0.217 HD
ENDBRANCH   8  30
TORSDOF 7
ENDMDL
MODEL 12
REMARK VINA RESULT:    -7.322      7.895      9.976
REMARK INTER + INTRA:         -10.918
REMARK INTER:                 -10.162
REMARK INTRA:                  -0.756
REMARK UNBOUND:                -1.027
REMARK  7 active torsions:
REMARK  status: ('A' for Active; 'I' for Inactive)
REMARK    1  A    between atoms: O_3  and  C_13 
REMARK    2  A    between atoms: O_6  and  C_22 
REMARK    3  A    between atoms: N_8  and  CA_17 
REMARK       I    between atoms: N_8  and  C_31 
REMARK    4  A    between atoms: C_14  and  C_31 
REMARK    5  A    between atoms: CA_17  and  CB_20 
REMARK    6  A    between atoms: CA_17  and  C_22 
REMARK    7  A    between atoms: CB_20  and  CG_21 
ROOT
HETATM    1 CL   UNL     1       9.282  -3.333   7.610  1.00  0.00    -0.084 Cl
HETATM    2  O   UNL     1      12.753   0.273   9.494  1.00  0.00    -0.312 OA
HETATM    3  O   UNL     1      13.773   1.131   7.662  1.00  0.00    -0.259 OA
HETATM    4  C   UNL     1      11.249  -1.626   9.311  1.00  0.00     0.073 C 
HETATM    5  C   UNL     1      11.558  -0.327  10.042  1.00  0.00     0.132 C 
HETATM    6  C   UNL     1      11.128  -1.310   7.852  1.00  0.00    -0.015 A 
HETATM    7  C   UNL     1      11.924  -0.299   7.300  1.00  0.00     0.081 A 
HETATM    8  C   UNL     1      11.844  -0.004   5.935  1.00  0.00     0.098 A 
HETATM    9  C   UNL     1      10.968  -0.722   5.122  1.00  0.00     0.067 A 
HETATM   10  C   UNL     1      10.264  -2.035   7.024  1.00  0.00     0.042 A 
HETATM   11  C   UNL     1      12.890   0.438   8.151  1.00  0.00     0.297 C 
HETATM   12  C   UNL     1      11.803  -0.568  11.525  1.00  0.00     0.040 C 
HETATM   13  C   UNL     1      10.181  -1.737   5.664  1.00  0.00     0.044 A 
ENDROOT
BRANCH   9  14
HETATM   14  C   ACE A   0      10.858  -0.434   3.697  1.00  0.00     0.255 C 
HETATM   15  O   UNL     1      11.375  -1.194   2.860  1.00  0.00    -0.268 OA
HETATM   16  N   UNL     1      10.135   0.708   3.336  1.00  0.00    -0.342 N 
HETATM   17  H   UNL     1       9.704   1.287   4.049  1.00  0.00     0.163 HD
BRANCH  16  18
HETATM   18  CA  UNL     1       9.918   1.113   1.966  1.00  0.00     0.186 C 
BRANCH  18  19
HETATM   19  CB  UNL     1       8.568   1.825   1.807  1.00  0.00     0.074 C 
BRANCH  19  20
HETATM   20  CG  UNL     1       7.880   2.083   3.126  1.00  0.00    -0.056 A 
HETATM   21  CD1 UNL     1       6.696   1.422   3.415  1.00  0.00     0.007 A 
HETATM   22  CE1 UNL     1       6.061   1.662   4.634  1.00  0.00     0.001 A 
HETATM   23  CZ  UNL     1       6.617   2.557   5.547  1.00  0.00     0.000 A 
HETATM   24  CE2 UNL     1       7.810   3.213   5.242  1.00  0.00     0.001 A 
HETATM   25  CD2 UNL     1       8.445   2.975   4.023  1.00  0.00     0.007 A 
ENDBRANCH  19  20
ENDBRANCH  18  19
BRANCH  18  26
HETATM   26  C   UNL     1      11.041   2.016   1.476  1.00  0.00     0.163 C 
HETATM   27  OXT UNL     1      11.085   2.469   0.338  1.00  0.00    -0.648 OA
BRANCH  26  28
HETATM   28  O   UNL     1      11.994   2.290   2.400  1.00  0.00    -0.775 OA
HETATM   29  H   UNL     1      11.664   2.166   3.315  1.00  0.00     0.167 HD
ENDBRANCH  26  28
ENDBRANCH  18  26
ENDBRANCH  16  18
ENDBRANCH   9  14
BRANCH   8  30
HETATM   30  O   UNL     1      12.594   0.986   5.368  1.00  0.00    -0.359 OA
HETATM   31  H   UNL     1      12.959   0.693   4.518  1.00  0.00     0.217 HD
ENDBRANCH   8  30
TORSDOF 7
ENDMDL
MODEL 13
REMARK VINA RESULT:    -7.314      8.838     11.799
REMARK INTER + INTRA:         -10.907
REMARK INTER:                  -9.849
REMARK INTRA:                  -1.058
REMARK UNBOUND:                -1.027
REMARK  7 active torsions:
REMARK  status: ('A' for Active; 'I' for Inactive)
REMARK    1  A    between atoms: O_3  and  C_13 
REMARK    2  A    between atoms: O_6  and  C_22 
REMARK    3  A    between atoms: N_8  and  CA_17 
REMARK       I    between atoms: N_8  and  C_31 
REMARK    4  A    between atoms: C_14  and  C_31 
REMARK    5  A    between atoms: CA_17  and  CB_20 
REMARK    6  A    between atoms: CA_17  and  C_22 
REMARK    7  A    between atoms: CB_20  and  CG_21 
ROOT
HETATM    1 CL   UNL     1       6.651  -2.201   6.770  1.00  0.00    -0.084 Cl
HETATM    2  O   UNL     1       6.166   2.585   4.433  1.00  0.00    -0.312 OA
HETATM    3  O   UNL     1       8.157   3.613   4.762  1.00  0.00    -0.259 OA
HETATM    4  C   UNL     1       5.663   0.464   5.506  1.00  0.00     0.073 C 
HETATM    5  C   UNL     1       5.465   1.331   4.271  1.00  0.00     0.132 C 
HETATM    6  C   UNL     1       7.137   0.288   5.707  1.00  0.00    -0.015 A 
HETATM    7  C   UNL     1       8.006   1.330   5.364  1.00  0.00     0.081 A 
HETATM    8  C   UNL     1       9.384   1.195   5.565  1.00  0.00     0.098 A 
HETATM    9  C   UNL     1       9.891   0.017   6.112  1.00  0.00     0.067 A 
HETATM   10  C   UNL     1       7.655  -0.884   6.270  1.00  0.00     0.042 A 
HETATM   11  C   UNL     1       7.468   2.603   4.824  1.00  0.00     0.297 C 
HETATM   12  C   UNL     1       3.993   1.652   4.048  1.00  0.00     0.040 C 
HETATM   13  C   UNL     1       9.029  -1.020   6.466  1.00  0.00     0.044 A 
ENDROOT
BRANCH   9  14
HETATM   14  C   ACE A   0      11.322  -0.155   6.329  1.00  0.00     0.255 C 
HETATM   15  O   UNL     1      12.130   0.072   5.413  1.00  0.00    -0.268 OA
HETATM   16  N   UNL     1      11.723  -0.560   7.607  1.00  0.00    -0.342 N 
HETATM   17  H   UNL     1      11.034  -0.708   8.337  1.00  0.00     0.163 HD
BRANCH  16  18
HETATM   18  CA  UNL     1      13.106  -0.750   7.984  1.00  0.00     0.186 C 
BRANCH  18  19
HETATM   19  CB  UNL     1      13.372  -0.213   9.397  1.00  0.00     0.074 C 
BRANCH  19  20
HETATM   20  CG  UNL     1      13.751   1.248   9.409  1.00  0.00    -0.056 A 
HETATM   21  CD1 UNL     1      12.806   2.192   9.782  1.00  0.00     0.007 A 
HETATM   22  CE1 UNL     1      13.157   3.542   9.793  1.00  0.00     0.001 A 
HETATM   23  CZ  UNL     1      14.446   3.931   9.433  1.00  0.00     0.000 A 
HETATM   24  CE2 UNL     1      15.387   2.970   9.061  1.00  0.00     0.001 A 
HETATM   25  CD2 UNL     1      15.037   1.620   9.049  1.00  0.00     0.007 A 
ENDBRANCH  19  20
ENDBRANCH  18  19
BRANCH  18  26
HETATM   26  C   UNL     1      13.499  -2.218   7.905  1.00  0.00     0.163 C 
HETATM   27  OXT UNL     1      13.677  -2.804   6.843  1.00  0.00    -0.648 OA
BRANCH  26  28
HETATM   28  O   UNL     1      13.645  -2.834   9.103  1.00  0.00    -0.775 OA
HETATM   29  H   UNL     1      13.597  -3.810   9.021  1.00  0.00     0.167 HD
ENDBRANCH  26  28
ENDBRANCH  18  26
ENDBRANCH  16  18
ENDBRANCH   9  14
BRANCH   8  30
HETATM   30  O   UNL     1      10.261   2.185   5.227  1.00  0.00    -0.359 OA
HETATM   31  H   UNL     1      10.248   2.339   4.270  1.00  0.00     0.217 HD
ENDBRANCH   8  30
TORSDOF 7
ENDMDL
MODEL 14
REMARK VINA RESULT:    -7.311      5.525      8.200
REMARK INTER + INTRA:         -10.902
REMARK INTER:                  -9.941
REMARK INTRA:                  -0.961
REMARK UNBOUND:                -1.027
REMARK  7 active torsions:
REMARK  status: ('A' for Active; 'I' for Inactive)
REMARK    1  A    between atoms: O_3  and  C_13 
REMARK    2  A    between atoms: O_6  and  C_22 
REMARK    3  A    between atoms: N_8  and  CA_17 
REMARK       I    between atoms: N_8  and  C_31 
REMARK    4  A    between atoms: C_14  and  C_31 
REMARK    5  A    between atoms: CA_17  and  CB_20 
REMARK    6  A    between atoms: CA_17  and  C_22 
REMARK    7  A    between atoms: CB_20  and  CG_21 
ROOT
HETATM    1 CL   UNL     1       9.602  -4.216  11.239  1.00  0.00    -0.084 Cl
HETATM    2  O   UNL     1      13.384  -2.128   8.086  1.00  0.00    -0.312 OA
HETATM    3  O   UNL     1      12.628  -2.428   5.972  1.00  0.00    -0.259 OA
HETATM    4  C   UNL     1      12.226  -3.119   9.978  1.00  0.00     0.073 C 
HETATM    5  C   UNL     1      13.040  -1.935   9.476  1.00  0.00     0.132 C 
HETATM    6  C   UNL     1      11.025  -3.253   9.092  1.00  0.00    -0.015 A 
HETATM    7  C   UNL     1      11.133  -2.926   7.735  1.00  0.00     0.081 A 
HETATM    8  C   UNL     1      10.030  -3.068   6.886  1.00  0.00     0.098 A 
HETATM    9  C   UNL     1       8.820  -3.538   7.395  1.00  0.00     0.067 A 
HETATM   10  C   UNL     1       9.811  -3.740   9.590  1.00  0.00     0.042 A 
HETATM   11  C   UNL     1      12.429  -2.468   7.179  1.00  0.00     0.297 C 
HETATM   12  C   UNL     1      14.340  -1.784  10.255  1.00  0.00     0.040 C 
HETATM   13  C   UNL     1       8.711  -3.876   8.743  1.00  0.00     0.044 A 
ENDROOT
BRANCH   9  14
HETATM   14  C   ACE A   0       7.653  -3.691   6.536  1.00  0.00     0.255 C 
HETATM   15  O   UNL     1       7.068  -2.692   6.085  1.00  0.00    -0.268 OA
HETATM   16  N   UNL     1       7.254  -4.998   6.238  1.00  0.00    -0.342 N 
HETATM   17  H   UNL     1       7.776  -5.788   6.604  1.00  0.00     0.163 HD
BRANCH  16  18
HETATM   18  CA  UNL     1       6.132  -5.314   5.383  1.00  0.00     0.186 C 
BRANCH  18  19
HETATM   19  CB  UNL     1       6.427  -6.544   4.515  1.00  0.00     0.074 C 
BRANCH  19  20
HETATM   20  CG  UNL     1       6.330  -6.258   3.036  1.00  0.00    -0.056 A 
HETATM   21  CD1 UNL     1       7.419  -6.523   2.220  1.00  0.00     0.007 A 
HETATM   22  CE1 UNL     1       7.329  -6.258   0.853  1.00  0.00     0.001 A 
HETATM   23  CZ  UNL     1       6.152  -5.734   0.320  1.00  0.00     0.000 A 
HETATM   24  CE2 UNL     1       5.063  -5.474   1.153  1.00  0.00     0.001 A 
HETATM   25  CD2 UNL     1       5.154  -5.737   2.520  1.00  0.00     0.007 A 
ENDBRANCH  19  20
ENDBRANCH  18  19
BRANCH  18  26
HETATM   26  C   UNL     1       4.868  -5.545   6.198  1.00  0.00     0.163 C 
HETATM   27  OXT UNL     1       4.016  -4.679   6.369  1.00  0.00    -0.648 OA
BRANCH  26  28
HETATM   28  O   UNL     1       4.748  -6.789   6.722  1.00  0.00    -0.775 OA
HETATM   29  H   UNL     1       4.626  -7.469   6.026  1.00  0.00     0.167 HD
ENDBRANCH  26  28
ENDBRANCH  18  26
ENDBRANCH  16  18
ENDBRANCH   9  14
BRANCH   8  30
HETATM   30  O   UNL     1      10.096  -2.743   5.562  1.00  0.00    -0.359 OA
HETATM   31  H   UNL     1       9.762  -3.471   5.015  1.00  0.00     0.217 HD
ENDBRANCH   8  30
TORSDOF 7
ENDMDL
MODEL 15
REMARK VINA RESULT:    -7.301      7.747      9.526
REMARK INTER + INTRA:         -10.889
REMARK INTER:                  -9.688
REMARK INTRA:                  -1.201
REMARK UNBOUND:                -1.027
REMARK  7 active torsions:
REMARK  status: ('A' for Active; 'I' for Inactive)
REMARK    1  A    between atoms: O_3  and  C_13 
REMARK    2  A    between atoms: O_6  and  C_22 
REMARK    3  A    between atoms: N_8  and  CA_17 
REMARK       I    between atoms: N_8  and  C_31 
REMARK    4  A    between atoms: C_14  and  C_31 
REMARK    5  A    between atoms: CA_17  and  CB_20 
REMARK    6  A    between atoms: CA_17  and  C_22 
REMARK    7  A    between atoms: CB_20  and  CG_21 
ROOT
HETATM    1 CL   UNL     1       6.028   1.443   3.710  1.00  0.00    -0.084 Cl
HETATM    2  O   UNL     1      10.306   1.915   0.535  1.00  0.00    -0.312 OA
HETATM    3  O   UNL     1      12.092   1.821   1.925  1.00  0.00    -0.259 OA
HETATM    4  C   UNL     1       8.044   2.030   1.414  1.00  0.00     0.073 C 
HETATM    5  C   UNL     1       8.938   1.514   0.296  1.00  0.00     0.132 C 
HETATM    6  C   UNL     1       8.588   1.508   2.709  1.00  0.00    -0.015 A 
HETATM    7  C   UNL     1       9.971   1.344   2.857  1.00  0.00     0.081 A 
HETATM    8  C   UNL     1      10.501   0.881   4.065  1.00  0.00     0.098 A 
HETATM    9  C   UNL     1       9.648   0.583   5.127  1.00  0.00     0.067 A 
HETATM   10  C   UNL     1       7.742   1.222   3.786  1.00  0.00     0.042 A 
HETATM   11  C   UNL     1      10.887   1.702   1.746  1.00  0.00     0.297 C 
HETATM   12  C   UNL     1       8.522   2.081  -1.054  1.00  0.00     0.040 C 
HETATM   13  C   UNL     1       8.272   0.755   4.989  1.00  0.00     0.044 A 
ENDROOT
BRANCH   9  14
HETATM   14  C   ACE A   0      10.171   0.094   6.397  1.00  0.00     0.255 C 
HETATM   15  O   UNL     1      10.058   0.777   7.429  1.00  0.00    -0.268 OA
HETATM   16  N   UNL     1      10.772  -1.169   6.389  1.00  0.00    -0.342 N 
HETATM   17  H   UNL     1      10.819  -1.708   5.530  1.00  0.00     0.163 HD
BRANCH  16  18
HETATM   18  CA  UNL     1      11.316  -1.800   7.571  1.00  0.00     0.186 C 
BRANCH  18  19
HETATM   19  CB  UNL     1      10.670  -3.171   7.812  1.00  0.00     0.074 C 
BRANCH  19  20
HETATM   20  CG  UNL     1       9.191  -3.186   7.509  1.00  0.00    -0.056 A 
HETATM   21  CD1 UNL     1       8.740  -3.805   6.354  1.00  0.00     0.007 A 
HETATM   22  CE1 UNL     1       7.373  -3.819   6.075  1.00  0.00     0.001 A 
HETATM   23  CZ  UNL     1       6.475  -3.215   6.954  1.00  0.00     0.000 A 
HETATM   24  CE2 UNL     1       6.944  -2.597   8.114  1.00  0.00     0.001 A 
HETATM   25  CD2 UNL     1       8.310  -2.582   8.393  1.00  0.00     0.007 A 
ENDBRANCH  19  20
ENDBRANCH  18  19
BRANCH  18  26
HETATM   26  C   UNL     1      12.827  -1.949   7.467  1.00  0.00     0.163 C 
HETATM   27  OXT UNL     1      13.604  -1.024   7.676  1.00  0.00    -0.648 OA
BRANCH  26  28
HETATM   28  O   UNL     1      13.254  -3.189   7.129  1.00  0.00    -0.775 OA
HETATM   29  H   UNL     1      14.186  -3.341   7.398  1.00  0.00     0.167 HD
ENDBRANCH  26  28
ENDBRANCH  18  26
ENDBRANCH  16  18
ENDBRANCH   9  14
BRANCH   8  30
HETATM   30  O   UNL     1      11.843   0.695   4.237  1.00  0.00    -0.359 OA
HETATM   31  H   UNL     1      12.101   0.895   5.151  1.00  0.00     0.217 HD
ENDBRANCH   8  30
TORSDOF 7
ENDMDL
MODEL 16
REMARK VINA RESULT:    -7.236      6.096      8.835
REMARK INTER + INTRA:         -10.801
REMARK INTER:                  -9.869
REMARK INTRA:                  -0.932
REMARK UNBOUND:                -1.027
REMARK  7 active torsions:
REMARK  status: ('A' for Active; 'I' for Inactive)
REMARK    1  A    between atoms: O_3  and  C_13 
REMARK    2  A    between atoms: O_6  and  C_22 
REMARK    3  A    between atoms: N_8  and  CA_17 
REMARK       I    between atoms: N_8  and  C_31 
REMARK    4  A    between atoms: C_14  and  C_31 
REMARK    5  A    between atoms: CA_17  and  CB_20 
REMARK    6  A    between atoms: CA_17  and  C_22 
REMARK    7  A    between atoms: CB_20  and  CG_21 
ROOT
HETATM    1 CL   UNL     1       9.487  -3.951   5.356  1.00  0.00    -0.084 Cl
HETATM    2  O   UNL     1       5.585  -7.605   5.184  1.00  0.00    -0.312 OA
HETATM    3  O   UNL     1       3.843  -6.667   6.287  1.00  0.00    -0.259 OA
HETATM    4  C   UNL     1       7.766  -6.536   5.156  1.00  0.00     0.073 C 
HETATM    5  C   UNL     1       6.767  -7.385   4.383  1.00  0.00     0.132 C 
HETATM    6  C   UNL     1       7.077  -5.262   5.543  1.00  0.00    -0.015 A 
HETATM    7  C   UNL     1       5.709  -5.285   5.840  1.00  0.00     0.081 A 
HETATM    8  C   UNL     1       5.052  -4.112   6.226  1.00  0.00     0.098 A 
HETATM    9  C   UNL     1       5.764  -2.917   6.317  1.00  0.00     0.067 A 
HETATM   10  C   UNL     1       7.786  -4.061   5.653  1.00  0.00     0.042 A 
HETATM   11  C   UNL     1       4.955  -6.561   5.788  1.00  0.00     0.297 C 
HETATM   12  C   UNL     1       7.349  -8.749   4.037  1.00  0.00     0.040 C 
HETATM   13  C   UNL     1       7.129  -2.892   6.034  1.00  0.00     0.044 A 
ENDROOT
BRANCH   9  14
HETATM   14  C   ACE A   0       5.106  -1.678   6.712  1.00  0.00     0.255 C 
HETATM   15  O   UNL     1       4.738  -1.508   7.886  1.00  0.00    -0.268 OA
HETATM   16  N   UNL     1       4.939  -0.706   5.720  1.00  0.00    -0.342 N 
HETATM   17  H   UNL     1       5.280  -0.873   4.778  1.00  0.00     0.163 HD
BRANCH  16  18
HETATM   18  CA  UNL     1       4.327   0.581   5.961  1.00  0.00     0.186 C 
BRANCH  18  19
HETATM   19  CB  UNL     1       5.389   1.681   6.096  1.00  0.00     0.074 C 
BRANCH  19  20
HETATM   20  CG  UNL     1       6.513   1.539   5.098  1.00  0.00    -0.056 A 
HETATM   21  CD1 UNL     1       7.612   0.758   5.420  1.00  0.00     0.007 A 
HETATM   22  CE1 UNL     1       8.651   0.627   4.498  1.00  0.00     0.001 A 
HETATM   23  CZ  UNL     1       8.578   1.278   3.267  1.00  0.00     0.000 A 
HETATM   24  CE2 UNL     1       7.464   2.060   2.957  1.00  0.00     0.001 A 
HETATM   25  CD2 UNL     1       6.426   2.192   3.878  1.00  0.00     0.007 A 
ENDBRANCH  19  20
ENDBRANCH  18  19
BRANCH  18  26
HETATM   26  C   UNL     1       3.348   0.939   4.852  1.00  0.00     0.163 C 
HETATM   27  OXT UNL     1       2.407   1.707   5.016  1.00  0.00    -0.648 OA
BRANCH  26  28
HETATM   28  O   UNL     1       3.597   0.346   3.659  1.00  0.00    -0.775 OA
HETATM   29  H   UNL     1       2.991  -0.407   3.491  1.00  0.00     0.167 HD
ENDBRANCH  26  28
ENDBRANCH  18  26
ENDBRANCH  16  18
ENDBRANCH   9  14
BRANCH   8  30
HETATM   30  O   UNL     1       3.716  -4.095   6.507  1.00  0.00    -0.359 OA
HETATM   31  H   UNL     1       3.426  -3.197   6.730  1.00  0.00     0.217 HD
ENDBRANCH   8  30
TORSDOF 7
ENDMDL
MODEL 17
REMARK VINA RESULT:    -7.181      9.433     12.083
REMARK INTER + INTRA:         -10.727
REMARK INTER:                 -10.122
REMARK INTRA:                  -0.605
REMARK UNBOUND:                -1.027
REMARK  7 active torsions:
REMARK  status: ('A' for Active; 'I' for Inactive)
REMARK    1  A    between atoms: O_3  and  C_13 
REMARK    2  A    between atoms: O_6  and  C_22 
REMARK    3  A    between atoms: N_8  and  CA_17 
REMARK       I    between atoms: N_8  and  C_31 
REMARK    4  A    between atoms: C_14  and  C_31 
REMARK    5  A    between atoms: CA_17  and  CB_20 
REMARK    6  A    between atoms: CA_17  and  C_22 
REMARK    7  A    between atoms: CB_20  and  CG_21 
ROOT
HETATM    1 CL   UNL     1       8.001   1.585   1.121  1.00  0.00    -0.084 Cl
HETATM    2  O   UNL     1       5.355   1.260   5.758  1.00  0.00    -0.312 OA
HETATM    3  O   UNL     1       6.928   0.749   7.306  1.00  0.00    -0.259 OA
HETATM    4  C   UNL     1       5.894   1.275   3.389  1.00  0.00     0.073 C 
HETATM    5  C   UNL     1       5.064   1.906   4.498  1.00  0.00     0.132 C 
HETATM    6  C   UNL     1       7.336   1.383   3.781  1.00  0.00    -0.015 A 
HETATM    7  C   UNL     1       7.687   1.299   5.134  1.00  0.00     0.081 A 
HETATM    8  C   UNL     1       9.030   1.373   5.520  1.00  0.00     0.098 A 
HETATM    9  C   UNL     1      10.021   1.530   4.551  1.00  0.00     0.067 A 
HETATM   10  C   UNL     1       8.339   1.524   2.816  1.00  0.00     0.042 A 
HETATM   11  C   UNL     1       6.642   1.086   6.165  1.00  0.00     0.297 C 
HETATM   12  C   UNL     1       3.573   1.748   4.234  1.00  0.00     0.040 C 
HETATM   13  C   UNL     1       9.677   1.603   3.203  1.00  0.00     0.044 A 
ENDROOT
BRANCH   9  14
HETATM   14  C   ACE A   0      11.427   1.616   4.923  1.00  0.00     0.255 C 
HETATM   15  O   UNL     1      12.196   0.667   4.698  1.00  0.00    -0.268 OA
HETATM   16  N   UNL     1      11.854   2.811   5.513  1.00  0.00    -0.342 N 
HETATM   17  H   UNL     1      11.200   3.574   5.653  1.00  0.00     0.163 HD
BRANCH  16  18
HETATM   18  CA  UNL     1      13.221   3.057   5.914  1.00  0.00     0.186 C 
BRANCH  18  19
HETATM   19  CB  UNL     1      13.655   2.088   7.021  1.00  0.00     0.074 C 
BRANCH  19  20
HETATM   20  CG  UNL     1      13.122   2.470   8.381  1.00  0.00    -0.056 A 
HETATM   21  CD1 UNL     1      12.130   1.697   8.964  1.00  0.00     0.007 A 
HETATM   22  CE1 UNL     1      11.638   2.051  10.221  1.00  0.00     0.001 A 
HETATM   23  CZ  UNL     1      12.143   3.172  10.877  1.00  0.00     0.000 A 
HETATM   24  CE2 UNL     1      13.143   3.940  10.279  1.00  0.00     0.001 A 
HETATM   25  CD2 UNL     1      13.634   3.587   9.022  1.00  0.00     0.007 A 
ENDBRANCH  19  20
ENDBRANCH  18  19
BRANCH  18  26
HETATM   26  C   UNL     1      14.168   2.949   4.728  1.00  0.00     0.163 C 
HETATM   27  OXT UNL     1      15.342   2.612   4.841  1.00  0.00    -0.648 OA
BRANCH  26  28
HETATM   28  O   UNL     1      13.615   3.248   3.528  1.00  0.00    -0.775 OA
HETATM   29  H   UNL     1      14.283   3.265   2.810  1.00  0.00     0.167 HD
ENDBRANCH  26  28
ENDBRANCH  18  26
ENDBRANCH  16  18
ENDBRANCH   9  14
BRANCH   8  30
HETATM   30  O   UNL     1       9.406   1.311   6.831  1.00  0.00    -0.359 OA
HETATM   31  H   UNL     1       9.463   0.388   7.125  1.00  0.00     0.217 HD
ENDBRANCH   8  30
TORSDOF 7
ENDMDL
MODEL 18
REMARK VINA RESULT:    -7.157      8.653     11.606
REMARK INTER + INTRA:         -10.694
REMARK INTER:                  -9.641
REMARK INTRA:                  -1.054
REMARK UNBOUND:                -1.027
REMARK  7 active torsions:
REMARK  status: ('A' for Active; 'I' for Inactive)
REMARK    1  A    between atoms: O_3  and  C_13 
REMARK    2  A    between atoms: O_6  and  C_22 
REMARK    3  A    between atoms: N_8  and  CA_17 
REMARK       I    between atoms: N_8  and  C_31 
REMARK    4  A    between atoms: C_14  and  C_31 
REMARK    5  A    between atoms: CA_17  and  CB_20 
REMARK    6  A    between atoms: CA_17  and  C_22 
REMARK    7  A    between atoms: CB_20  and  CG_21 
ROOT
HETATM    1 CL   UNL     1       7.998   2.636   2.528  1.00  0.00    -0.084 Cl
HETATM    2  O   UNL     1       4.740  -0.239   5.646  1.00  0.00    -0.312 OA
HETATM    3  O   UNL     1       6.064  -1.805   6.607  1.00  0.00    -0.259 OA
HETATM    4  C   UNL     1       5.592   1.215   3.896  1.00  0.00     0.073 C 
HETATM    5  C   UNL     1       4.651   1.091   5.086  1.00  0.00     0.132 C 
HETATM    6  C   UNL     1       6.972   0.870   4.369  1.00  0.00    -0.015 A 
HETATM    7  C   UNL     1       7.134  -0.098   5.368  1.00  0.00     0.081 A 
HETATM    8  C   UNL     1       8.414  -0.451   5.807  1.00  0.00     0.098 A 
HETATM    9  C   UNL     1       9.533   0.164   5.245  1.00  0.00     0.067 A 
HETATM   10  C   UNL     1       8.101   1.469   3.801  1.00  0.00     0.042 A 
HETATM   11  C   UNL     1       5.950  -0.787   5.937  1.00  0.00     0.297 C 
HETATM   12  C   UNL     1       3.203   1.321   4.675  1.00  0.00     0.040 C 
HETATM   13  C   UNL     1       9.377   1.119   4.243  1.00  0.00     0.044 A 
ENDROOT
BRANCH   9  14
HETATM   14  C   ACE A   0      10.879  -0.180   5.685  1.00  0.00     0.255 C 
HETATM   15  O   UNL     1      11.761  -0.455   4.855  1.00  0.00    -0.268 OA
HETATM   16  N   UNL     1      11.118  -0.160   7.064  1.00  0.00    -0.342 N 
HETATM   17  H   UNL     1      10.377   0.097   7.708  1.00  0.00     0.163 HD
BRANCH  16  18
HETATM   18  CA  UNL     1      12.405  -0.454   7.653  1.00  0.00     0.186 C 
BRANCH  18  19
HETATM   19  CB  UNL     1      12.522   0.157   9.056  1.00  0.00     0.074 C 
BRANCH  19  20
HETATM   20  CG  UNL     1      13.417   1.373   9.095  1.00  0.00    -0.056 A 
HETATM   21  CD1 UNL     1      12.850   2.629   9.249  1.00  0.00     0.007 A 
HETATM   22  CE1 UNL     1      13.678   3.752   9.285  1.00  0.00     0.001 A 
HETATM   23  CZ  UNL     1      15.059   3.605   9.167  1.00  0.00     0.000 A 
HETATM   24  CE2 UNL     1      15.615   2.334   9.014  1.00  0.00     0.001 A 
HETATM   25  CD2 UNL     1      14.789   1.211   8.977  1.00  0.00     0.007 A 
ENDBRANCH  19  20
ENDBRANCH  18  19
BRANCH  18  26
HETATM   26  C   UNL     1      12.649  -1.955   7.719  1.00  0.00     0.163 C 
HETATM   27  OXT UNL     1      12.194  -2.666   8.608  1.00  0.00    -0.648 OA
BRANCH  26  28
HETATM   28  O   UNL     1      13.405  -2.453   6.711  1.00  0.00    -0.775 OA
HETATM   29  H   UNL     1      13.188  -3.390   6.519  1.00  0.00     0.167 HD
ENDBRANCH  26  28
ENDBRANCH  18  26
ENDBRANCH  16  18
ENDBRANCH   9  14
BRANCH   8  30
HETATM   30  O   UNL     1       8.606  -1.379   6.789  1.00  0.00    -0.359 OA
HETATM   31  H   UNL     1       9.535  -1.392   7.069  1.00  0.00     0.217 HD
ENDBRANCH   8  30
TORSDOF 7
ENDMDL
MODEL 19
REMARK VINA RESULT:    -7.112      8.175     11.709
REMARK INTER + INTRA:         -10.634
REMARK INTER:                  -9.530
REMARK INTRA:                  -1.104
REMARK UNBOUND:                -1.027
REMARK  7 active torsions:
REMARK  status: ('A' for Active; 'I' for Inactive)
REMARK    1  A    between atoms: O_3  and  C_13 
REMARK    2  A    between atoms: O_6  and  C_22 
REMARK    3  A    between atoms: N_8  and  CA_17 
REMARK       I    between atoms: N_8  and  C_31 
REMARK    4  A    between atoms: C_14  and  C_31 
REMARK    5  A    between atoms: CA_17  and  CB_20 
REMARK    6  A    between atoms: CA_17  and  C_22 
REMARK    7  A    between atoms: CB_20  and  CG_21 
ROOT
HETATM    1 CL   UNL     1       4.417  -4.024   6.504  1.00  0.00    -0.084 Cl
HETATM    2  O   UNL     1       4.287  -1.341  11.129  1.00  0.00    -0.312 OA
HETATM    3  O   UNL     1       6.120  -0.010  11.097  1.00  0.00    -0.259 OA
HETATM    4  C   UNL     1       3.931  -3.018   9.408  1.00  0.00     0.073 C 
HETATM    5  C   UNL     1       3.276  -2.023  10.355  1.00  0.00     0.132 C 
HETATM    6  C   UNL     1       4.907  -2.262   8.558  1.00  0.00    -0.015 A 
HETATM    7  C   UNL     1       5.591  -1.170   9.104  1.00  0.00     0.081 A 
HETATM    8  C   UNL     1       6.523  -0.465   8.335  1.00  0.00     0.098 A 
HETATM    9  C   UNL     1       6.772  -0.856   7.020  1.00  0.00     0.067 A 
HETATM   10  C   UNL     1       5.176  -2.656   7.243  1.00  0.00     0.042 A 
HETATM   11  C   UNL     1       5.363  -0.777  10.516  1.00  0.00     0.297 C 
HETATM   12  C   UNL     1       2.341  -2.721  11.333  1.00  0.00     0.040 C 
HETATM   13  C   UNL     1       6.102  -1.950   6.475  1.00  0.00     0.044 A 
ENDROOT
BRANCH   9  14
HETATM   14  C   ACE A   0       7.734  -0.139   6.193  1.00  0.00     0.255 C 
HETATM   15  O   UNL     1       8.661  -0.748   5.634  1.00  0.00    -0.268 OA
HETATM   16  N   UNL     1       7.543   1.240   6.051  1.00  0.00    -0.342 N 
HETATM   17  H   UNL     1       6.756   1.696   6.502  1.00  0.00     0.163 HD
BRANCH  16  18
HETATM   18  CA  UNL     1       8.396   2.084   5.245  1.00  0.00     0.186 C 
BRANCH  18  19
HETATM   19  CB  UNL     1       7.670   2.557   3.979  1.00  0.00     0.074 C 
BRANCH  19  20
HETATM   20  CG  UNL     1       8.224   1.939   2.718  1.00  0.00    -0.056 A 
HETATM   21  CD1 UNL     1       9.391   1.193   2.783  1.00  0.00     0.007 A 
HETATM   22  CE1 UNL     1       9.903   0.623   1.616  1.00  0.00     0.001 A 
HETATM   23  CZ  UNL     1       9.242   0.806   0.402  1.00  0.00     0.000 A 
HETATM   24  CE2 UNL     1       8.068   1.558   0.353  1.00  0.00     0.001 A 
HETATM   25  CD2 UNL     1       7.557   2.129   1.518  1.00  0.00     0.007 A 
ENDBRANCH  19  20
ENDBRANCH  18  19
BRANCH  18  26
HETATM   26  C   UNL     1       8.888   3.285   6.041  1.00  0.00     0.163 C 
HETATM   27  OXT UNL     1       9.349   3.192   7.173  1.00  0.00    -0.648 OA
BRANCH  26  28
HETATM   28  O   UNL     1       8.783   4.474   5.399  1.00  0.00    -0.775 OA
HETATM   29  H   UNL     1       8.794   5.230   6.024  1.00  0.00     0.167 HD
ENDBRANCH  26  28
ENDBRANCH  18  26
ENDBRANCH  16  18
ENDBRANCH   9  14
BRANCH   8  30
HETATM   30  O   UNL     1       7.195   0.614   8.831  1.00  0.00    -0.359 OA
HETATM   31  H   UNL     1       6.732   0.981   9.600  1.00  0.00     0.217 HD
ENDBRANCH   8  30
TORSDOF 7
ENDMDL
MODEL 20
REMARK VINA RESULT:    -7.065      9.410     11.332
REMARK INTER + INTRA:         -10.571
REMARK INTER:                  -9.544
REMARK INTRA:                  -1.027
REMARK UNBOUND:                -1.027
REMARK  7 active torsions:
REMARK  status: ('A' for Active; 'I' for Inactive)
REMARK    1  A    between atoms: O_3  and  C_13 
REMARK    2  A    between atoms: O_6  and  C_22 
REMARK    3  A    between atoms: N_8  and  CA_17 
REMARK       I    between atoms: N_8  and  C_31 
REMARK    4  A    between atoms: C_14  and  C_31 
REMARK    5  A    between atoms: CA_17  and  CB_20 
REMARK    6  A    between atoms: CA_17  and  C_22 
REMARK    7  A    between atoms: CB_20  and  CG_21 
ROOT
HETATM    1 CL   UNL     1      10.786  -3.448  10.156  1.00  0.00    -0.084 Cl
HETATM    2  O   UNL     1      15.257  -0.825  11.471  1.00  0.00    -0.312 OA
HETATM    3  O   UNL     1      15.982   0.119   9.544  1.00  0.00    -0.259 OA
HETATM    4  C   UNL     1      13.397  -2.388  11.474  1.00  0.00     0.073 C 
HETATM    5  C   UNL     1      14.124  -1.290  12.238  1.00  0.00     0.132 C 
HETATM    6  C   UNL     1      13.010  -1.832  10.137  1.00  0.00    -0.015 A 
HETATM    7  C   UNL     1      13.847  -0.899   9.513  1.00  0.00     0.081 A 
HETATM    8  C   UNL     1      13.517  -0.386   8.254  1.00  0.00     0.098 A 
HETATM    9  C   UNL     1      12.350  -0.808   7.619  1.00  0.00     0.067 A 
HETATM   10  C   UNL     1      11.850  -2.262   9.483  1.00  0.00     0.042 A 
HETATM   11  C   UNL     1      15.113  -0.480  10.164  1.00  0.00     0.297 C 
HETATM   12  C   UNL     1      14.648  -1.798  13.574  1.00  0.00     0.040 C 
HETATM   13  C   UNL     1      11.519  -1.746   8.230  1.00  0.00     0.044 A 
ENDROOT
BRANCH   9  14
HETATM   14  C   ACE A   0      11.977  -0.288   6.310  1.00  0.00     0.255 C 
HETATM   15  O   UNL     1      11.925  -1.043   5.324  1.00  0.00    -0.268 OA
HETATM   16  N   UNL     1      11.665   1.074   6.235  1.00  0.00    -0.342 N 
HETATM   17  H   UNL     1      11.691   1.651   7.070  1.00  0.00     0.163 HD
BRANCH  16  18
HETATM   18  CA  UNL     1      11.255   1.732   5.015  1.00  0.00     0.186 C 
BRANCH  18  19
HETATM   19  CB  UNL     1      10.288   2.886   5.308  1.00  0.00     0.074 C 
BRANCH  19  20
HETATM   20  CG  UNL     1       8.898   2.641   4.770  1.00  0.00    -0.056 A 
HETATM   21  CD1 UNL     1       8.746   2.111   3.499  1.00  0.00     0.007 A 
HETATM   22  CE1 UNL     1       7.462   1.884   3.002  1.00  0.00     0.001 A 
HETATM   23  CZ  UNL     1       6.348   2.191   3.783  1.00  0.00     0.000 A 
HETATM   24  CE2 UNL     1       6.517   2.724   5.061  1.00  0.00     0.001 A 
HETATM   25  CD2 UNL     1       7.800   2.951   5.558  1.00  0.00     0.007 A 
ENDBRANCH  19  20
ENDBRANCH  18  19
BRANCH  18  26
HETATM   26  C   UNL     1      12.458   2.247   4.239  1.00  0.00     0.163 C 
HETATM   27  OXT UNL     1      13.538   2.490   4.766  1.00  0.00    -0.648 OA
BRANCH  26  28
HETATM   28  O   UNL     1      12.249   2.412   2.910  1.00  0.00    -0.775 OA
HETATM   29  H   UNL     1      12.923   2.999   2.504  1.00  0.00     0.167 HD
ENDBRANCH  26  28
ENDBRANCH  18  26
ENDBRANCH  16  18
ENDBRANCH   9  14
BRANCH   8  30
HETATM   30  O   UNL     1      14.302   0.537   7.625  1.00  0.00    -0.359 OA
HETATM   31  H   UNL     1      14.524   1.263   8.229  1.00  0.00     0.217 HD
ENDBRANCH   8  30
TORSDOF 7
ENDMDL
