MODEL 1
REMARK VINA RESULT:    -6.739      0.000      0.000
REMARK INTER + INTRA:          -5.649
REMARK INTER:                  -7.761
REMARK INTRA:                   2.112
REMARK UNBOUND:                 3.847
REMARK  7 active torsions:
REMARK  status: ('A' for Active; 'I' for Inactive)
REMARK    1  A    between atoms: C_13  and  C_14 
REMARK    2  A    between atoms: C_14  and  C_19 
REMARK    3  A    between atoms: C_15  and  C_20 
REMARK    4  A    between atoms: C_16  and  C_21 
REMARK    5  A    between atoms: C_17  and  C_23 
REMARK    6  A    between atoms: C_18  and  C_26 
REMARK    7  A    between atoms: C_22  and  C_28 
ROOT
HETATM    1  O   UNL     1       4.338  25.570   8.844  1.00  0.00    -0.304 OA
HETATM    2  O   UNL     1       2.031  24.682   4.242  1.00  0.00    -0.304 OA
HETATM    3  O   UNL     1      -0.759  25.595   7.947  1.00  0.00    -0.304 OA
HETATM    4  O   UNL     1       4.188  23.353   6.188  1.00  0.00    -0.270 OA
HETATM    5  O   UNL     1       3.465  27.170   7.430  1.00  0.00    -0.263 OA
HETATM    6  O   UNL     1       2.401  23.889   8.467  1.00  0.00    -0.270 OA
HETATM    7  O   UNL     1      -1.985  24.766   5.063  1.00  0.00    -0.270 OA
HETATM    8  O   UNL     1       1.709  24.784   1.969  1.00  0.00    -0.263 OA
HETATM    9  O   UNL     1      -1.777  23.540   7.753  1.00  0.00    -0.263 OA
HETATM   10  N   UNL     1       4.663  25.506   5.462  1.00  0.00    -0.340 N 
HETATM   11  N   UNL     1       0.863  24.875   9.887  1.00  0.00    -0.340 N 
HETATM   12  N   UNL     1      -0.129  26.152   4.843  1.00  0.00    -0.340 N 
HETATM   13  C   UNL     1       5.357  25.808   6.730  1.00  0.00     0.190 C 
HETATM   14  C   UNL     1      -0.156  23.874   9.508  1.00  0.00     0.190 C 
HETATM   15  C   UNL     1       0.066  25.800   3.421  1.00  0.00     0.190 C 
HETATM   16  C   UNL     1       3.265  23.958   4.065  1.00  0.00     0.227 C 
HETATM   17  C   UNL     1       3.235  25.718   9.766  1.00  0.00     0.227 C 
HETATM   18  C   UNL     1      -1.538  26.228   6.915  1.00  0.00     0.227 C 
HETATM   19  C   UNL     1       4.076  24.234   5.328  1.00  0.00     0.250 C 
HETATM   20  C   UNL     1       4.279  26.292   7.686  1.00  0.00     0.283 C 
HETATM   21  C   UNL     1       2.137  24.752   9.312  1.00  0.00     0.250 C 
HETATM   22  C   UNL     1      -1.242  25.636   5.529  1.00  0.00     0.250 C 
HETATM   23  C   UNL     1       1.359  25.048   3.115  1.00  0.00     0.283 C 
HETATM   24  C   UNL     1      -0.981  24.300   8.295  1.00  0.00     0.283 C 
HETATM   25  C   UNL     1       4.601  26.561   4.446  1.00  0.00     0.153 C 
HETATM   26  C   UNL     1       0.465  25.945  10.804  1.00  0.00     0.153 C 
HETATM   27  C   UNL     1       0.753  27.169   5.416  1.00  0.00     0.153 C 
ENDROOT
BRANCH  17  28
HETATM   28  C   UNL     1       3.757  25.329  11.142  1.00  0.00     0.016 C 
HETATM   29  C   UNL     1       4.093  23.839  11.191  1.00  0.00     0.012 C 
HETATM   30  C   UNL     1       4.981  26.166  11.511  1.00  0.00     0.012 C 
ENDBRANCH  17  28
BRANCH  13  31
HETATM   31  C   UNL     1       6.485  26.831   6.648  1.00  0.00     0.014 C 
HETATM   32  C   UNL     1       6.963  27.192   8.055  1.00  0.00     0.012 C 
BRANCH  31  33
HETATM   33  C   UNL     1       7.623  26.287   5.766  1.00  0.00     0.002 C 
HETATM   34  C   UNL     1       8.983  26.897   6.076  1.00  0.00     0.005 C 
ENDBRANCH  31  33
ENDBRANCH  13  31
BRANCH  14  35
HETATM   35  C   UNL     1      -1.089  23.482  10.654  1.00  0.00     0.010 C 
HETATM   36  C   UNL     1      -2.420  24.224  10.545  1.00  0.00     0.012 C 
HETATM   37  C   UNL     1      -1.320  21.971  10.670  1.00  0.00     0.012 C 
ENDBRANCH  14  35
BRANCH  16  38
HETATM   38  C   UNL     1       2.943  22.473   3.915  1.00  0.00     0.016 C 
HETATM   39  C   UNL     1       4.115  21.729   3.277  1.00  0.00     0.012 C 
HETATM   40  C   UNL     1       1.672  22.278   3.090  1.00  0.00     0.012 C 
ENDBRANCH  16  38
BRANCH  18  41
HETATM   41  C   UNL     1      -3.029  26.231   7.250  1.00  0.00     0.016 C 
HETATM   42  C   UNL     1      -3.834  26.844   6.108  1.00  0.00     0.012 C 
HETATM   43  C   UNL     1      -3.284  26.985   8.553  1.00  0.00     0.012 C 
ENDBRANCH  18  41
BRANCH  15  44
HETATM   44  C   UNL     1      -0.064  27.029   2.521  1.00  0.00     0.010 C 
HETATM   45  C   UNL     1      -1.311  26.922   1.648  1.00  0.00     0.012 C 
HETATM   46  C   UNL     1       1.185  27.196   1.661  1.00  0.00     0.012 C 
ENDBRANCH  15  44
TORSDOF 7
ENDMDL
