57339253
  -OEChem-08292504422D

108108  0     1  0  0  0  0  0999 V2000
    8.9282   -0.2500    0.0000 O   0  0  0  0  0  0  0  0  0  0  0  0
    4.5981   -1.7500    0.0000 O   0  0  0  0  0  0  0  0  0  0  0  0
    4.5981    1.2500    0.0000 O   0  0  0  0  0  0  0  0  0  0  0  0
    8.9282   -2.2500    0.0000 O   0  0  0  0  0  0  0  0  0  0  0  0
    9.7942    1.2500    0.0000 O   0  0  0  0  0  0  0  0  0  0  0  0
    6.3301    2.2500    0.0000 O   0  0  0  0  0  0  0  0  0  0  0  0
    5.4641   -3.2500    0.0000 O   0  0  0  0  0  0  0  0  0  0  0  0
    2.0000   -2.2500    0.0000 O   0  0  0  0  0  0  0  0  0  0  0  0
    2.8660    1.2500    0.0000 O   0  0  0  0  0  0  0  0  0  0  0  0
    7.1962   -2.2500    0.0000 N   0  0  0  0  0  0  0  0  0  0  0  0
    7.1962    0.7500    0.0000 N   0  0  0  0  0  0  0  0  0  0  0  0
    2.8660   -0.7500    0.0000 N   0  0  0  0  0  0  0  0  0  0  0  0
    8.0622    1.2500    0.0000 C   0  0  1  0  0  0  0  0  0  0  0  0
    6.3301   -1.7500    0.0000 C   0  0  1  0  0  0  0  0  0  0  0  0
    8.0622    2.2500    0.0000 C   0  0  2  0  0  0  0  0  0  0  0  0
    5.9881   -0.8103    0.0000 C   0  0  2  0  0  0  0  0  0  0  0  0
    8.0622   -0.7500    0.0000 C   0  0  2  0  0  0  0  0  0  0  0  0
    3.7321   -0.2500    0.0000 C   0  0  1  0  0  0  0  0  0  0  0  0
    5.4641    0.7500    0.0000 C   0  0  2  0  0  0  0  0  0  0  0  0
    3.7321   -2.2500    0.0000 C   0  0  2  0  0  0  0  0  0  0  0  0
    7.7202    0.1897    0.0000 C   0  0  0  0  0  0  0  0  0  0  0  0
    8.9282    2.7500    0.0000 C   0  0  0  0  0  0  0  0  0  0  0  0
    5.0033   -0.6367    0.0000 C   0  0  0  0  0  0  0  0  0  0  0  0
    4.0741   -1.1897    0.0000 C   0  0  0  0  0  0  0  0  0  0  0  0
    8.0622   -1.7500    0.0000 C   0  0  0  0  0  0  0  0  0  0  0  0
    8.9282    0.7500    0.0000 C   0  0  0  0  0  0  0  0  0  0  0  0
    5.4641   -0.2500    0.0000 C   0  0  0  0  0  0  0  0  0  0  0  0
    6.3301    1.2500    0.0000 C   0  0  0  0  0  0  0  0  0  0  0  0
    5.4641   -2.2500    0.0000 C   0  0  0  0  0  0  0  0  0  0  0  0
    3.7321   -3.2500    0.0000 C   0  0  0  0  0  0  0  0  0  0  0  0
    7.1962    2.7500    0.0000 C   0  0  0  0  0  0  0  0  0  0  0  0
    6.1618    0.1745    0.0000 C   0  0  0  0  0  0  0  0  0  0  0  0
    2.8660   -1.7500    0.0000 C   0  0  0  0  0  0  0  0  0  0  0  0
    3.7321    0.7500    0.0000 C   0  0  0  0  0  0  0  0  0  0  0  0
    7.1962   -3.2500    0.0000 C   0  0  0  0  0  0  0  0  0  0  0  0
    7.1962   -0.2500    0.0000 C   0  0  0  0  0  0  0  0  0  0  0  0
    8.8702    0.1897    0.0000 C   0  0  0  0  0  0  0  0  0  0  0  0
    6.7354    0.3634    0.0000 C   0  0  0  0  0  0  0  0  0  0  0  0
    8.9282    3.7500    0.0000 C   0  0  0  0  0  0  0  0  0  0  0  0
    4.8297    0.3481    0.0000 C   0  0  0  0  0  0  0  0  0  0  0  0
    2.9241   -1.1896    0.0000 C   0  0  0  0  0  0  0  0  0  0  0  0
    5.0589   -1.3633    0.0000 C   0  0  0  0  0  0  0  0  0  0  0  0
    4.4641   -0.2500    0.0000 C   0  0  0  0  0  0  0  0  0  0  0  0
    6.4489   -0.4236    0.0000 C   0  0  0  0  0  0  0  0  0  0  0  0
    2.0000   -0.2500    0.0000 C   0  0  0  0  0  0  0  0  0  0  0  0
    2.8660   -3.7500    0.0000 C   0  0  0  0  0  0  0  0  0  0  0  0
    4.5981   -3.7500    0.0000 C   0  0  0  0  0  0  0  0  0  0  0  0
    7.3261    1.6750    0.0000 H   0  0  0  0  0  0  0  0  0  0  0  0
    6.9813   -1.2036    0.0000 H   0  0  0  0  0  0  0  0  0  0  0  0
    8.0622    2.8700    0.0000 H   0  0  0  0  0  0  0  0  0  0  0  0
    6.6058   -0.7563    0.0000 H   0  0  0  0  0  0  0  0  0  0  0  0
    8.2742   -0.1674    0.0000 H   0  0  0  0  0  0  0  0  0  0  0  0
    3.5200   -0.8326    0.0000 H   0  0  0  0  0  0  0  0  0  0  0  0
    4.9272    0.4400    0.0000 H   0  0  0  0  0  0  0  0  0  0  0  0
    4.2690   -2.5600    0.0000 H   0  0  0  0  0  0  0  0  0  0  0  0
    7.7742    0.8073    0.0000 H   0  0  0  0  0  0  0  0  0  0  0  0
    9.1403    2.1674    0.0000 H   0  0  0  0  0  0  0  0  0  0  0  0
    9.5388    2.8577    0.0000 H   0  0  0  0  0  0  0  0  0  0  0  0
    4.3844   -0.6727    0.0000 H   0  0  0  0  0  0  0  0  0  0  0  0
    4.9673   -1.2556    0.0000 H   0  0  0  0  0  0  0  0  0  0  0  0
    4.0200   -1.8073    0.0000 H   0  0  0  0  0  0  0  0  0  0  0  0
    5.4101   -0.8676    0.0000 H   0  0  0  0  0  0  0  0  0  0  0  0
    3.7321   -3.8700    0.0000 H   0  0  0  0  0  0  0  0  0  0  0  0
    7.5062    3.2869    0.0000 H   0  0  0  0  0  0  0  0  0  0  0  0
    6.6592    3.0600    0.0000 H   0  0  0  0  0  0  0  0  0  0  0  0
    6.8862    2.2131    0.0000 H   0  0  0  0  0  0  0  0  0  0  0  0
    6.7723    0.0668    0.0000 H   0  0  0  0  0  0  0  0  0  0  0  0
    6.2694    0.7851    0.0000 H   0  0  0  0  0  0  0  0  0  0  0  0
    5.5512    0.2822    0.0000 H   0  0  0  0  0  0  0  0  0  0  0  0
    6.5762   -3.2500    0.0000 H   0  0  0  0  0  0  0  0  0  0  0  0
    7.1962   -3.8700    0.0000 H   0  0  0  0  0  0  0  0  0  0  0  0
    7.8162   -3.2500    0.0000 H   0  0  0  0  0  0  0  0  0  0  0  0
    6.5762   -0.2500    0.0000 H   0  0  0  0  0  0  0  0  0  0  0  0
    7.1962   -0.8700    0.0000 H   0  0  0  0  0  0  0  0  0  0  0  0
    7.8162   -0.2500    0.0000 H   0  0  0  0  0  0  0  0  0  0  0  0
    8.8702   -0.4303    0.0000 H   0  0  0  0  0  0  0  0  0  0  0  0
    9.4902    0.1897    0.0000 H   0  0  0  0  0  0  0  0  0  0  0  0
    8.8702    0.8097    0.0000 H   0  0  0  0  0  0  0  0  0  0  0  0
    6.8430    0.9740    0.0000 H   0  0  0  0  0  0  0  0  0  0  0  0
    6.1248    0.4711    0.0000 H   0  0  0  0  0  0  0  0  0  0  0  0
    6.6277   -0.2472    0.0000 H   0  0  0  0  0  0  0  0  0  0  0  0
    9.5482    3.7500    0.0000 H   0  0  0  0  0  0  0  0  0  0  0  0
    8.9282    4.3700    0.0000 H   0  0  0  0  0  0  0  0  0  0  0  0
    8.3082    3.7500    0.0000 H   0  0  0  0  0  0  0  0  0  0  0  0
    5.4402    0.4558    0.0000 H   0  0  0  0  0  0  0  0  0  0  0  0
    4.7220    0.9587    0.0000 H   0  0  0  0  0  0  0  0  0  0  0  0
    4.2191    0.2405    0.0000 H   0  0  0  0  0  0  0  0  0  0  0  0
    2.9241   -0.5696    0.0000 H   0  0  0  0  0  0  0  0  0  0  0  0
    2.3041   -1.1896    0.0000 H   0  0  0  0  0  0  0  0  0  0  0  0
    2.9240   -1.8096    0.0000 H   0  0  0  0  0  0  0  0  0  0  0  0
    4.9512   -1.9739    0.0000 H   0  0  0  0  0  0  0  0  0  0  0  0
    5.6695   -1.4710    0.0000 H   0  0  0  0  0  0  0  0  0  0  0  0
    5.1665   -0.7528    0.0000 H   0  0  0  0  0  0  0  0  0  0  0  0
    4.4641    0.3700    0.0000 H   0  0  0  0  0  0  0  0  0  0  0  0
    3.8441   -0.2499    0.0000 H   0  0  0  0  0  0  0  0  0  0  0  0
    4.4641   -0.8700    0.0000 H   0  0  0  0  0  0  0  0  0  0  0  0
    6.3413   -1.0342    0.0000 H   0  0  0  0  0  0  0  0  0  0  0  0
    7.0595   -0.5313    0.0000 H   0  0  0  0  0  0  0  0  0  0  0  0
    6.5566    0.1869    0.0000 H   0  0  0  0  0  0  0  0  0  0  0  0
    2.3100    0.2869    0.0000 H   0  0  0  0  0  0  0  0  0  0  0  0
    1.4631    0.0600    0.0000 H   0  0  0  0  0  0  0  0  0  0  0  0
    1.6900   -0.7869    0.0000 H   0  0  0  0  0  0  0  0  0  0  0  0
    2.5560   -3.2131    0.0000 H   0  0  0  0  0  0  0  0  0  0  0  0
    2.3291   -4.0600    0.0000 H   0  0  0  0  0  0  0  0  0  0  0  0
    3.1760   -4.2869    0.0000 H   0  0  0  0  0  0  0  0  0  0  0  0
    4.2881   -4.2869    0.0000 H   0  0  0  0  0  0  0  0  0  0  0  0
    5.1350   -4.0600    0.0000 H   0  0  0  0  0  0  0  0  0  0  0  0
    4.9081   -3.2131    0.0000 H   0  0  0  0  0  0  0  0  0  0  0  0
  1 17  1  0  0  0  0
  1 26  1  0  0  0  0
  2 20  1  0  0  0  0
  2 29  1  0  0  0  0
  3 19  1  0  0  0  0
  3 34  1  0  0  0  0
  4 25  2  0  0  0  0
  5 26  2  0  0  0  0
  6 28  2  0  0  0  0
  7 29  2  0  0  0  0
  8 33  2  0  0  0  0
  9 34  2  0  0  0  0
 10 14  1  0  0  0  0
 10 25  1  0  0  0  0
 10 35  1  0  0  0  0
 11 13  1  0  0  0  0
 11 28  1  0  0  0  0
 11 36  1  0  0  0  0
 12 18  1  0  0  0  0
 12 33  1  0  0  0  0
 12 45  1  0  0  0  0
 13 15  1  0  0  0  0
 13 26  1  0  0  0  0
 13 48  1  6  0  0  0
 14 16  1  0  0  0  0
 14 29  1  0  0  0  0
 14 49  1  1  0  0  0
 15 22  1  0  0  0  0
 15 31  1  1  0  0  0
 15 50  1  0  0  0  0
 16 23  1  0  0  0  0
 16 32  1  6  0  0  0
 16 51  1  0  0  0  0
 17 21  1  1  0  0  0
 17 25  1  0  0  0  0
 17 52  1  0  0  0  0
 18 24  1  6  0  0  0
 18 34  1  0  0  0  0
 18 53  1  0  0  0  0
 19 27  1  1  0  0  0
 19 28  1  0  0  0  0
 19 54  1  0  0  0  0
 20 30  1  6  0  0  0
 20 33  1  0  0  0  0
 20 55  1  0  0  0  0
 21 37  1  0  0  0  0
 21 38  1  0  0  0  0
 21 56  1  0  0  0  0
 22 39  1  0  0  0  0
 22 57  1  0  0  0  0
 22 58  1  0  0  0  0
 23 40  1  0  0  0  0
 23 59  1  0  0  0  0
 23 60  1  0  0  0  0
 24 41  1  0  0  0  0
 24 42  1  0  0  0  0
 24 61  1  0  0  0  0
 27 43  1  0  0  0  0
 27 44  1  0  0  0  0
 27 62  1  0  0  0  0
 30 46  1  0  0  0  0
 30 47  1  0  0  0  0
 30 63  1  0  0  0  0
 31 64  1  0  0  0  0
 31 65  1  0  0  0  0
 31 66  1  0  0  0  0
 32 67  1  0  0  0  0
 32 68  1  0  0  0  0
 32 69  1  0  0  0  0
 35 70  1  0  0  0  0
 35 71  1  0  0  0  0
 35 72  1  0  0  0  0
 36 73  1  0  0  0  0
 36 74  1  0  0  0  0
 36 75  1  0  0  0  0
 37 76  1  0  0  0  0
 37 77  1  0  0  0  0
 37 78  1  0  0  0  0
 38 79  1  0  0  0  0
 38 80  1  0  0  0  0
 38 81  1  0  0  0  0
 39 82  1  0  0  0  0
 39 83  1  0  0  0  0
 39 84  1  0  0  0  0
 40 85  1  0  0  0  0
 40 86  1  0  0  0  0
 40 87  1  0  0  0  0
 41 88  1  0  0  0  0
 41 89  1  0  0  0  0
 41 90  1  0  0  0  0
 42 91  1  0  0  0  0
 42 92  1  0  0  0  0
 42 93  1  0  0  0  0
 43 94  1  0  0  0  0
 43 95  1  0  0  0  0
 43 96  1  0  0  0  0
 44 97  1  0  0  0  0
 44 98  1  0  0  0  0
 44 99  1  0  0  0  0
 45100  1  0  0  0  0
 45101  1  0  0  0  0
 45102  1  0  0  0  0
 46103  1  0  0  0  0
 46104  1  0  0  0  0
 46105  1  0  0  0  0
 47106  1  0  0  0  0
 47107  1  0  0  0  0
 47108  1  0  0  0  0
M  END
> <PUBCHEM_COMPOUND_CID>
57339253

> <PUBCHEM_COMPOUND_CANONICALIZED>
1

> <PUBCHEM_CACTVS_COMPLEXITY>
1120

> <PUBCHEM_CACTVS_HBOND_ACCEPTOR>
9

> <PUBCHEM_CACTVS_HBOND_DONOR>
0

> <PUBCHEM_CACTVS_ROTATABLE_BOND>
8

> <PUBCHEM_CACTVS_SUBSKEYS>
AAADcfB/PAAAAAAAAAAAAAAAAAAAAAAAAAAAAAAAAAAAAAAAAAAAHgAAAAAADTzhgAYCCAMABAAIAAGQGAIAAAAAAAAAAAHIAAACABIAgCQHAAAEBgCQAACIAAAKAAAAAAAAAAAAAAAAAAAAAAAAAAAAAA==

> <PUBCHEM_IUPAC_OPENEYE_NAME>
(3S,6R,9S,12R,15S,18R)-3,6,12,18-tetraisopropyl-4,10,16-trimethyl-9,15-bis[(1S)-1-methylpropyl]-1,7,13-trioxa-4,10,16-triazacyclooctadecane-2,5,8,11,14,17-hexone

> <PUBCHEM_IUPAC_CAS_NAME>
(3S,6R,9S,12R,15S,18R)-3,9-bis[(2S)-butan-2-yl]-4,10,16-trimethyl-6,12,15,18-tetra(propan-2-yl)-1,7,13-trioxa-4,10,16-triazacyclooctadecane-2,5,8,11,14,17-hexone

> <PUBCHEM_IUPAC_NAME_MARKUP>
(3<I>S</I>,6<I>R</I>,9<I>S</I>,12<I>R</I>,15<I>S</I>,18<I>R</I>)-3,9-bis[(2<I>S</I>)-butan-2-yl]-4,10,16-trimethyl-6,12,15,18-tetra(propan-2-yl)-1,7,13-trioxa-4,10,16-triazacyclooctadecane-2,5,8,11,14,17-hexone

> <PUBCHEM_IUPAC_NAME>
(3S,6R,9S,12R,15S,18R)-3,9-bis[(2S)-butan-2-yl]-4,10,16-trimethyl-6,12,15,18-tetra(propan-2-yl)-1,7,13-trioxa-4,10,16-triazacyclooctadecane-2,5,8,11,14,17-hexone

> <PUBCHEM_IUPAC_SYSTEMATIC_NAME>
(3S,6R,9S,12R,15S,18R)-3,9-bis[(2S)-butan-2-yl]-4,10,16-trimethyl-6,12,15,18-tetra(propan-2-yl)-1,7,13-trioxa-4,10,16-triazacyclooctadecane-2,5,8,11,14,17-hexone

> <PUBCHEM_IUPAC_TRADITIONAL_NAME>
(3S,6R,9S,12R,15S,18R)-3,6,12,18-tetraisopropyl-4,10,16-trimethyl-9,15-bis[(1S)-1-methylpropyl]-1,7,13-trioxa-4,10,16-triazacyclooctadecane-2,5,8,11,14,17-triquinone

> <PUBCHEM_IUPAC_INCHI>
InChI=1S/C35H61N3O9/c1-16-22(11)25-34(43)46-27(19(5)6)30(39)36(13)24(18(3)4)33(42)45-28(20(7)8)31(40)37(14)26(23(12)17-2)35(44)47-29(21(9)10)32(41)38(25)15/h18-29H,16-17H2,1-15H3/t22-,23-,24-,25-,26-,27+,28+,29+/m0/s1

> <PUBCHEM_IUPAC_INCHIKEY>
OWUREPXBPJFMOK-CIRFPNLUSA-N

> <PUBCHEM_XLOGP3_AA>
7.3

> <PUBCHEM_EXACT_MASS>
667.44078053

> <PUBCHEM_MOLECULAR_FORMULA>
C35H61N3O9

> <PUBCHEM_MOLECULAR_WEIGHT>
667.9

> <PUBCHEM_SMILES>
CC[C@H](C)[C@H]1C(=O)O[C@@H](C(=O)N([C@H](C(=O)O[C@@H](C(=O)N([C@H](C(=O)O[C@@H](C(=O)N1C)C(C)C)[C@@H](C)CC)C)C(C)C)C(C)C)C)C(C)C

> <PUBCHEM_CONNECTIVITY_SMILES>
CCC(C)C1C(=O)OC(C(=O)N(C(C(=O)OC(C(=O)N(C(C(=O)OC(C(=O)N1C)C(C)C)C(C)C)C)C(C)C)C(C)CC)C)C(C)C

> <PUBCHEM_CACTVS_TPSA>
140

> <PUBCHEM_MONOISOTOPIC_WEIGHT>
667.44078053

> <PUBCHEM_TOTAL_CHARGE>
0

> <PUBCHEM_HEAVY_ATOM_COUNT>
47

> <PUBCHEM_ATOM_DEF_STEREO_COUNT>
8

> <PUBCHEM_ATOM_UDEF_STEREO_COUNT>
0

> <PUBCHEM_BOND_DEF_STEREO_COUNT>
0

> <PUBCHEM_BOND_UDEF_STEREO_COUNT>
0

> <PUBCHEM_ISOTOPIC_ATOM_COUNT>
0

> <PUBCHEM_COMPONENT_COUNT>
1

> <PUBCHEM_CACTVS_TAUTO_COUNT>
-1

> <PUBCHEM_COORDINATE_TYPE>
1
5
255

> <PUBCHEM_BONDANNOTATIONS>
13  48  6
14  49  5
15  31  5
16  32  6
17  21  5
18  24  6
19  27  5
20  30  6

$$$$
