MODEL 1
REMARK VINA RESULT:    -5.963      0.000      0.000
REMARK INTER + INTRA:          -4.577
REMARK INTER:                  -5.361
REMARK INTRA:                   0.784
REMARK UNBOUND:                 4.524
REMARK  9 active torsions:
REMARK  status: ('A' for Active; 'I' for Inactive)
REMARK    1  A    between atoms: C_13  and  C_16 
REMARK    2  A    between atoms: C_14  and  C_17 
REMARK    3  A    between atoms: C_15  and  C_18 
REMARK    4  A    between atoms: C_16  and  C_22 
REMARK    5  A    between atoms: C_17  and  C_23 
REMARK    6  A    between atoms: C_18  and  C_24 
REMARK    7  A    between atoms: C_19  and  C_25 
REMARK    8  A    between atoms: C_20  and  C_26 
REMARK    9  A    between atoms: C_21  and  C_27 
ROOT
HETATM    1  O   UNL     1      11.301  -0.018 -23.160  1.00  0.00    -0.304 OA
HETATM    2  O   UNL     1       6.696  -1.112 -24.995  1.00  0.00    -0.304 OA
HETATM    3  O   UNL     1       8.374   2.726 -22.563  1.00  0.00    -0.304 OA
HETATM    4  O   UNL     1      10.208  -1.533 -24.957  1.00  0.00    -0.270 OA
HETATM    5  O   UNL     1      10.133   4.465 -20.161  1.00  0.00    -0.270 OA
HETATM    6  O   UNL     1       8.169   1.056 -25.263  1.00  0.00    -0.270 OA
HETATM    7  O   UNL     1      12.123   0.619 -21.101  1.00  0.00    -0.263 OA
HETATM    8  O   UNL     1       6.920  -1.222 -22.700  1.00  0.00    -0.263 OA
HETATM    9  O   UNL     1       8.561   5.007 -22.797  1.00  0.00    -0.263 OA
HETATM   10  N   UNL     1       9.171  -2.787 -23.303  1.00  0.00    -0.340 N 
HETATM   11  N   UNL     1      11.402   3.246 -21.671  1.00  0.00    -0.340 N 
HETATM   12  N   UNL     1       6.570   2.554 -24.499  1.00  0.00    -0.340 N 
HETATM   13  C   UNL     1       7.948  -2.914 -24.120  1.00  0.00     0.190 C 
HETATM   14  C   UNL     1      11.511   2.281 -22.785  1.00  0.00     0.190 C 
HETATM   15  C   UNL     1       7.518   3.691 -24.557  1.00  0.00     0.190 C 
HETATM   16  C   UNL     1      11.190  -1.407 -22.783  1.00  0.00     0.227 C 
HETATM   17  C   UNL     1       5.986   0.140 -24.903  1.00  0.00     0.227 C 
HETATM   18  C   UNL     1       8.975   2.669 -21.266  1.00  0.00     0.227 C 
HETATM   19  C   UNL     1      10.171  -1.931 -23.787  1.00  0.00     0.250 C 
HETATM   20  C   UNL     1      10.212   3.553 -20.993  1.00  0.00     0.250 C 
HETATM   21  C   UNL     1       7.008   1.283 -24.902  1.00  0.00     0.250 C 
HETATM   22  C   UNL     1      11.699   0.883 -22.216  1.00  0.00     0.283 C 
HETATM   23  C   UNL     1       7.132  -1.663 -23.822  1.00  0.00     0.283 C 
HETATM   24  C   UNL     1       8.173   3.916 -23.194  1.00  0.00     0.283 C 
HETATM   25  C   UNL     1       9.218  -3.433 -21.990  1.00  0.00     0.153 C 
HETATM   26  C   UNL     1      12.624   3.928 -21.245  1.00  0.00     0.153 C 
HETATM   27  C   UNL     1       5.243   2.838 -23.944  1.00  0.00     0.153 C 
ENDROOT
BRANCH  16  28
HETATM   28  C   UNL     1      12.525  -2.107 -22.957  1.00  0.00     0.016 C 
HETATM   29  C   UNL     1      12.944  -2.111 -24.425  1.00  0.00     0.012 C 
HETATM   30  C   UNL     1      12.461  -3.533 -22.414  1.00  0.00     0.012 C 
ENDBRANCH  16  28
BRANCH  14  31
HETATM   31  C   UNL     1      12.611   2.585 -23.799  1.00  0.00     0.014 C 
HETATM   32  C   UNL     1      13.660   1.471 -23.775  1.00  0.00     0.012 C 
BRANCH  31  33
HETATM   33  C   UNL     1      12.062   2.754 -25.227  1.00  0.00     0.002 C 
HETATM   34  C   UNL     1      11.489   4.138 -25.499  1.00  0.00     0.005 C 
ENDBRANCH  31  33
ENDBRANCH  14  31
BRANCH  13  35
HETATM   35  C   UNL     1       7.096  -4.154 -23.881  1.00  0.00     0.014 C 
HETATM   36  C   UNL     1       5.639  -3.744 -23.649  1.00  0.00     0.012 C 
BRANCH  35  37
HETATM   37  C   UNL     1       7.176  -5.156 -25.046  1.00  0.00     0.002 C 
HETATM   38  C   UNL     1       6.180  -4.871 -26.162  1.00  0.00     0.005 C 
ENDBRANCH  35  37
ENDBRANCH  13  35
BRANCH  18  39
HETATM   39  C   UNL     1       7.872   2.918 -20.236  1.00  0.00     0.016 C 
HETATM   40  C   UNL     1       6.572   2.244 -20.668  1.00  0.00     0.012 C 
HETATM   41  C   UNL     1       8.302   2.420 -18.858  1.00  0.00     0.012 C 
ENDBRANCH  18  39
BRANCH  17  42
HETATM   42  C   UNL     1       5.092   0.237 -26.130  1.00  0.00     0.016 C 
HETATM   43  C   UNL     1       4.309  -1.060 -26.333  1.00  0.00     0.012 C 
HETATM   44  C   UNL     1       5.916   0.563 -27.375  1.00  0.00     0.012 C 
ENDBRANCH  17  42
BRANCH  15  45
HETATM   45  C   UNL     1       6.893   4.975 -25.097  1.00  0.00     0.014 C 
HETATM   46  C   UNL     1       7.430   6.185 -24.324  1.00  0.00     0.012 C 
BRANCH  45  47
HETATM   47  C   UNL     1       7.148   5.170 -26.604  1.00  0.00     0.002 C 
HETATM   48  C   UNL     1       8.078   4.124 -27.201  1.00  0.00     0.005 C 
ENDBRANCH  45  47
ENDBRANCH  15  45
TORSDOF 9
ENDMDL
MODEL 2
REMARK VINA RESULT:    -4.302      2.944      7.979
REMARK INTER + INTRA:          -2.041
REMARK INTER:                  -4.223
REMARK INTRA:                   2.182
REMARK UNBOUND:                 4.524
REMARK  9 active torsions:
REMARK  status: ('A' for Active; 'I' for Inactive)
REMARK    1  A    between atoms: C_13  and  C_16 
REMARK    2  A    between atoms: C_14  and  C_17 
REMARK    3  A    between atoms: C_15  and  C_18 
REMARK    4  A    between atoms: C_16  and  C_22 
REMARK    5  A    between atoms: C_17  and  C_23 
REMARK    6  A    between atoms: C_18  and  C_24 
REMARK    7  A    between atoms: C_19  and  C_25 
REMARK    8  A    between atoms: C_20  and  C_26 
REMARK    9  A    between atoms: C_21  and  C_27 
ROOT
HETATM    1  O   UNL     1      10.967   6.537 -23.694  1.00  0.00    -0.304 OA
HETATM    2  O   UNL     1       5.934   6.201 -24.261  1.00  0.00    -0.304 OA
HETATM    3  O   UNL     1       9.480   2.965 -24.909  1.00  0.00    -0.304 OA
HETATM    4  O   UNL     1       8.812   7.729 -22.884  1.00  0.00    -0.270 OA
HETATM    5  O   UNL     1      12.539   1.740 -25.923  1.00  0.00    -0.270 OA
HETATM    6  O   UNL     1       7.612   4.645 -22.956  1.00  0.00    -0.270 OA
HETATM    7  O   UNL     1      12.790   6.073 -25.029  1.00  0.00    -0.263 OA
HETATM    8  O   UNL     1       7.169   6.234 -26.212  1.00  0.00    -0.263 OA
HETATM    9  O   UNL     1      10.116   0.885 -24.158  1.00  0.00    -0.263 OA
HETATM   10  N   UNL     1       8.387   8.476 -25.039  1.00  0.00    -0.340 N 
HETATM   11  N   UNL     1      12.591   3.395 -24.299  1.00  0.00    -0.340 N 
HETATM   12  N   UNL     1       7.004   2.667 -24.006  1.00  0.00    -0.340 N 
HETATM   13  C   UNL     1       6.937   8.253 -24.866  1.00  0.00     0.190 C 
HETATM   14  C   UNL     1      11.912   4.411 -23.467  1.00  0.00     0.190 C 
HETATM   15  C   UNL     1       8.071   1.902 -23.319  1.00  0.00     0.190 C 
HETATM   16  C   UNL     1      10.692   7.790 -24.357  1.00  0.00     0.227 C 
HETATM   17  C   UNL     1       5.700   4.784 -24.391  1.00  0.00     0.227 C 
HETATM   18  C   UNL     1      10.580   3.132 -25.808  1.00  0.00     0.227 C 
HETATM   19  C   UNL     1       9.226   8.020 -24.013  1.00  0.00     0.250 C 
HETATM   20  C   UNL     1      11.981   2.679 -25.342  1.00  0.00     0.250 C 
HETATM   21  C   UNL     1       6.858   4.034 -23.723  1.00  0.00     0.250 C 
HETATM   22  C   UNL     1      11.977   5.756 -24.173  1.00  0.00     0.283 C 
HETATM   23  C   UNL     1       6.710   6.789 -25.221  1.00  0.00     0.283 C 
HETATM   24  C   UNL     1       9.321   1.816 -24.196  1.00  0.00     0.283 C 
HETATM   25  C   UNL     1       8.875   9.019 -26.308  1.00  0.00     0.153 C 
HETATM   26  C   UNL     1      13.999   3.118 -24.015  1.00  0.00     0.153 C 
HETATM   27  C   UNL     1       6.216   1.936 -25.003  1.00  0.00     0.153 C 
ENDROOT
BRANCH  16  28
HETATM   28  C   UNL     1      11.559   8.893 -23.777  1.00  0.00     0.016 C 
HETATM   29  C   UNL     1      10.705   9.907 -23.018  1.00  0.00     0.012 C 
HETATM   30  C   UNL     1      12.359   9.585 -24.879  1.00  0.00     0.012 C 
ENDBRANCH  16  28
BRANCH  14  31
HETATM   31  C   UNL     1      12.446   4.541 -22.042  1.00  0.00     0.014 C 
HETATM   32  C   UNL     1      13.221   5.853 -21.898  1.00  0.00     0.012 C 
BRANCH  31  33
HETATM   33  C   UNL     1      11.326   4.478 -20.989  1.00  0.00     0.002 C 
HETATM   34  C   UNL     1      10.555   3.166 -20.998  1.00  0.00     0.005 C 
ENDBRANCH  31  33
ENDBRANCH  14  31
BRANCH  13  35
HETATM   35  C   UNL     1       6.010   9.133 -25.692  1.00  0.00     0.014 C 
HETATM   36  C   UNL     1       4.712   8.380 -25.994  1.00  0.00     0.012 C 
BRANCH  35  37
HETATM   37  C   UNL     1       5.687  10.466 -24.994  1.00  0.00     0.002 C 
HETATM   38  C   UNL     1       5.443  10.325 -23.497  1.00  0.00     0.005 C 
ENDBRANCH  35  37
ENDBRANCH  13  35
BRANCH  18  39
HETATM   39  C   UNL     1      10.194   2.477 -27.135  1.00  0.00     0.016 C 
HETATM   40  C   UNL     1      10.625   1.013 -27.157  1.00  0.00     0.012 C 
HETATM   41  C   UNL     1       8.690   2.597 -27.375  1.00  0.00     0.012 C 
ENDBRANCH  18  39
BRANCH  17  42
HETATM   42  C   UNL     1       4.394   4.480 -23.670  1.00  0.00     0.016 C 
HETATM   43  C   UNL     1       3.489   5.711 -23.650  1.00  0.00     0.012 C 
HETATM   44  C   UNL     1       4.663   3.992 -22.247  1.00  0.00     0.012 C 
ENDBRANCH  17  42
BRANCH  15  45
HETATM   45  C   UNL     1       7.621   0.521 -22.848  1.00  0.00     0.014 C 
HETATM   46  C   UNL     1       8.529  -0.559 -23.448  1.00  0.00     0.012 C 
BRANCH  45  47
HETATM   47  C   UNL     1       7.610   0.394 -21.313  1.00  0.00     0.002 C 
HETATM   48  C   UNL     1       6.880   1.531 -20.615  1.00  0.00     0.005 C 
ENDBRANCH  45  47
ENDBRANCH  15  45
TORSDOF 9
ENDMDL
MODEL 3
REMARK VINA RESULT:    -4.165      1.930      6.236
REMARK INTER + INTRA:          -1.832
REMARK INTER:                  -3.544
REMARK INTRA:                   1.712
REMARK UNBOUND:                 4.524
REMARK  9 active torsions:
REMARK  status: ('A' for Active; 'I' for Inactive)
REMARK    1  A    between atoms: C_13  and  C_16 
REMARK    2  A    between atoms: C_14  and  C_17 
REMARK    3  A    between atoms: C_15  and  C_18 
REMARK    4  A    between atoms: C_16  and  C_22 
REMARK    5  A    between atoms: C_17  and  C_23 
REMARK    6  A    between atoms: C_18  and  C_24 
REMARK    7  A    between atoms: C_19  and  C_25 
REMARK    8  A    between atoms: C_20  and  C_26 
REMARK    9  A    between atoms: C_21  and  C_27 
ROOT
HETATM    1  O   UNL     1       7.071   1.175 -24.578  1.00  0.00    -0.304 OA
HETATM    2  O   UNL     1      11.437  -1.411 -24.435  1.00  0.00    -0.304 OA
HETATM    3  O   UNL     1      10.500   3.325 -24.826  1.00  0.00    -0.304 OA
HETATM    4  O   UNL     1       7.974  -1.119 -23.774  1.00  0.00    -0.270 OA
HETATM    5  O   UNL     1       8.933   6.190 -25.933  1.00  0.00    -0.270 OA
HETATM    6  O   UNL     1      10.651   0.689 -23.051  1.00  0.00    -0.270 OA
HETATM    7  O   UNL     1       6.152   2.740 -26.002  1.00  0.00    -0.263 OA
HETATM    8  O   UNL     1      10.855  -0.527 -26.487  1.00  0.00    -0.263 OA
HETATM    9  O   UNL     1      10.964   5.301 -23.742  1.00  0.00    -0.263 OA
HETATM   10  N   UNL     1       8.382  -1.753 -25.968  1.00  0.00    -0.340 N 
HETATM   11  N   UNL     1       7.622   4.718 -24.709  1.00  0.00    -0.340 N 
HETATM   12  N   UNL     1      12.459   2.043 -23.582  1.00  0.00    -0.340 N 
HETATM   13  C   UNL     1       9.635  -2.429 -25.575  1.00  0.00     0.190 C 
HETATM   14  C   UNL     1       7.427   3.420 -24.031  1.00  0.00     0.190 C 
HETATM   15  C   UNL     1      11.868   3.210 -22.888  1.00  0.00     0.190 C 
HETATM   16  C   UNL     1       6.751   0.068 -25.448  1.00  0.00     0.227 C 
HETATM   17  C   UNL     1      12.432  -0.387 -24.235  1.00  0.00     0.227 C 
HETATM   18  C   UNL     1       9.721   3.918 -25.869  1.00  0.00     0.227 C 
HETATM   19  C   UNL     1       7.730  -1.001 -24.981  1.00  0.00     0.250 C 
HETATM   20  C   UNL     1       8.738   5.049 -25.496  1.00  0.00     0.250 C 
HETATM   21  C   UNL     1      11.764   0.824 -23.575  1.00  0.00     0.250 C 
HETATM   22  C   UNL     1       6.792   2.440 -25.005  1.00  0.00     0.283 C 
HETATM   23  C   UNL     1      10.701  -1.341 -25.585  1.00  0.00     0.283 C 
HETATM   24  C   UNL     1      11.102   4.092 -23.875  1.00  0.00     0.283 C 
HETATM   25  C   UNL     1       7.971  -1.783 -27.373  1.00  0.00     0.153 C 
HETATM   26  C   UNL     1       6.577   5.729 -24.550  1.00  0.00     0.153 C 
HETATM   27  C   UNL     1      13.717   2.278 -24.299  1.00  0.00     0.153 C 
ENDROOT
BRANCH  16  28
HETATM   28  C   UNL     1       5.318  -0.380 -25.224  1.00  0.00     0.016 C 
HETATM   29  C   UNL     1       5.270  -1.855 -24.829  1.00  0.00     0.012 C 
HETATM   30  C   UNL     1       4.474  -0.133 -26.472  1.00  0.00     0.012 C 
ENDBRANCH  16  28
BRANCH  14  31
HETATM   31  C   UNL     1       6.610   3.481 -22.742  1.00  0.00     0.014 C 
HETATM   32  C   UNL     1       5.172   3.037 -23.019  1.00  0.00     0.012 C 
BRANCH  31  33
HETATM   33  C   UNL     1       7.217   2.616 -21.623  1.00  0.00     0.002 C 
HETATM   34  C   UNL     1       8.541   3.147 -21.092  1.00  0.00     0.005 C 
ENDBRANCH  31  33
ENDBRANCH  14  31
BRANCH  13  35
HETATM   35  C   UNL     1      10.081  -3.596 -26.445  1.00  0.00     0.014 C 
HETATM   36  C   UNL     1      11.585  -3.496 -26.715  1.00  0.00     0.012 C 
BRANCH  35  37
HETATM   37  C   UNL     1       9.755  -4.960 -25.812  1.00  0.00     0.002 C 
HETATM   38  C   UNL     1       9.832  -4.959 -24.291  1.00  0.00     0.005 C 
ENDBRANCH  35  37
ENDBRANCH  13  35
BRANCH  18  39
HETATM   39  C   UNL     1      10.685   4.357 -26.972  1.00  0.00     0.016 C 
HETATM   40  C   UNL     1      11.467   5.595 -26.540  1.00  0.00     0.012 C 
HETATM   41  C   UNL     1      11.638   3.220 -27.336  1.00  0.00     0.012 C 
ENDBRANCH  18  39
BRANCH  17  42
HETATM   42  C   UNL     1      13.492  -0.970 -23.311  1.00  0.00     0.016 C 
HETATM   43  C   UNL     1      13.995  -2.311 -23.843  1.00  0.00     0.012 C 
HETATM   44  C   UNL     1      12.944  -1.129 -21.894  1.00  0.00     0.012 C 
ENDBRANCH  17  42
BRANCH  15  45
HETATM   45  C   UNL     1      12.885   4.020 -22.087  1.00  0.00     0.014 C 
HETATM   46  C   UNL     1      13.401   5.193 -22.928  1.00  0.00     0.012 C 
BRANCH  45  47
HETATM   47  C   UNL     1      12.308   4.549 -20.760  1.00  0.00     0.002 C 
HETATM   48  C   UNL     1      13.165   5.627 -20.113  1.00  0.00     0.005 C 
ENDBRANCH  45  47
ENDBRANCH  15  45
TORSDOF 9
ENDMDL
MODEL 4
REMARK VINA RESULT:    -3.571      4.874      9.490
REMARK INTER + INTRA:          -0.926
REMARK INTER:                  -4.256
REMARK INTRA:                   3.329
REMARK UNBOUND:                 4.524
REMARK  9 active torsions:
REMARK  status: ('A' for Active; 'I' for Inactive)
REMARK    1  A    between atoms: C_13  and  C_16 
REMARK    2  A    between atoms: C_14  and  C_17 
REMARK    3  A    between atoms: C_15  and  C_18 
REMARK    4  A    between atoms: C_16  and  C_22 
REMARK    5  A    between atoms: C_17  and  C_23 
REMARK    6  A    between atoms: C_18  and  C_24 
REMARK    7  A    between atoms: C_19  and  C_25 
REMARK    8  A    between atoms: C_20  and  C_26 
REMARK    9  A    between atoms: C_21  and  C_27 
ROOT
HETATM    1  O   UNL     1       6.970   7.916 -24.447  1.00  0.00    -0.304 OA
HETATM    2  O   UNL     1      11.028   5.382 -22.747  1.00  0.00    -0.304 OA
HETATM    3  O   UNL     1      10.585   9.695 -24.906  1.00  0.00    -0.304 OA
HETATM    4  O   UNL     1       7.550   6.030 -22.765  1.00  0.00    -0.270 OA
HETATM    5  O   UNL     1       9.441  12.032 -27.168  1.00  0.00    -0.270 OA
HETATM    6  O   UNL     1      10.266   7.868 -22.321  1.00  0.00    -0.270 OA
HETATM    7  O   UNL     1       6.388   8.901 -26.449  1.00  0.00    -0.263 OA
HETATM    8  O   UNL     1      10.795   5.493 -25.042  1.00  0.00    -0.263 OA
HETATM    9  O   UNL     1      11.086  11.909 -24.524  1.00  0.00    -0.263 OA
HETATM   10  N   UNL     1       8.176   4.635 -24.510  1.00  0.00    -0.340 N 
HETATM   11  N   UNL     1       7.856  11.151 -25.722  1.00  0.00    -0.340 N 
HETATM   12  N   UNL     1      12.244   8.868 -23.010  1.00  0.00    -0.340 N 
HETATM   13  C   UNL     1       9.300   4.095 -23.719  1.00  0.00     0.190 C 
HETATM   14  C   UNL     1       7.458  10.192 -24.671  1.00  0.00     0.190 C 
HETATM   15  C   UNL     1      11.678  10.229 -22.866  1.00  0.00     0.190 C 
HETATM   16  C   UNL     1       6.664   6.584 -24.913  1.00  0.00     0.227 C 
HETATM   17  C   UNL     1      12.079   6.368 -22.769  1.00  0.00     0.227 C 
HETATM   18  C   UNL     1      10.003   9.905 -26.196  1.00  0.00     0.227 C 
HETATM   19  C   UNL     1       7.474   5.716 -23.959  1.00  0.00     0.250 C 
HETATM   20  C   UNL     1       9.088  11.133 -26.395  1.00  0.00     0.250 C 
HETATM   21  C   UNL     1      11.444   7.762 -22.683  1.00  0.00     0.250 C 
HETATM   22  C   UNL     1       6.865   8.954 -25.325  1.00  0.00     0.283 C 
HETATM   23  C   UNL     1      10.454   5.064 -23.947  1.00  0.00     0.283 C 
HETATM   24  C   UNL     1      11.129  10.728 -24.203  1.00  0.00     0.283 C 
HETATM   25  C   UNL     1       7.946   4.119 -25.861  1.00  0.00     0.153 C 
HETATM   26  C   UNL     1       6.896  12.193 -26.087  1.00  0.00     0.153 C 
HETATM   27  C   UNL     1      13.599   8.779 -23.564  1.00  0.00     0.153 C 
ENDROOT
BRANCH  16  28
HETATM   28  C   UNL     1       5.180   6.305 -24.767  1.00  0.00     0.016 C 
HETATM   29  C   UNL     1       4.449   7.535 -24.232  1.00  0.00     0.012 C 
HETATM   30  C   UNL     1       4.945   5.104 -23.851  1.00  0.00     0.012 C 
ENDBRANCH  16  28
BRANCH  14  31
HETATM   31  C   UNL     1       6.492  10.744 -23.624  1.00  0.00     0.014 C 
HETATM   32  C   UNL     1       5.057  10.358 -23.990  1.00  0.00     0.012 C 
BRANCH  31  33
HETATM   33  C   UNL     1       6.820  10.248 -22.205  1.00  0.00     0.002 C 
HETATM   34  C   UNL     1       8.097  10.845 -21.632  1.00  0.00     0.005 C 
ENDBRANCH  31  33
ENDBRANCH  14  31
BRANCH  13  35
HETATM   35  C   UNL     1       9.745   2.677 -24.048  1.00  0.00     0.014 C 
HETATM   36  C   UNL     1      11.262   2.555 -23.873  1.00  0.00     0.012 C 
BRANCH  35  37
HETATM   37  C   UNL     1       9.035   1.622 -23.182  1.00  0.00     0.002 C 
HETATM   38  C   UNL     1       9.736   0.269 -23.176  1.00  0.00     0.005 C 
ENDBRANCH  35  37
ENDBRANCH  13  35
BRANCH  18  39
HETATM   39  C   UNL     1      11.137   9.880 -27.223  1.00  0.00     0.016 C 
HETATM   40  C   UNL     1      12.155  10.977 -26.924  1.00  0.00     0.012 C 
HETATM   41  C   UNL     1      11.813   8.510 -27.242  1.00  0.00     0.012 C 
ENDBRANCH  18  39
BRANCH  17  42
HETATM   42  C   UNL     1      12.954   6.115 -21.550  1.00  0.00     0.016 C 
HETATM   43  C   UNL     1      13.999   5.040 -21.849  1.00  0.00     0.012 C 
HETATM   44  C   UNL     1      12.101   5.710 -20.348  1.00  0.00     0.012 C 
ENDBRANCH  17  42
BRANCH  15  45
HETATM   45  C   UNL     1      12.654  11.231 -22.254  1.00  0.00     0.014 C 
HETATM   46  C   UNL     1      13.277  12.097 -23.355  1.00  0.00     0.012 C 
BRANCH  45  47
HETATM   47  C   UNL     1      11.990  12.136 -21.198  1.00  0.00     0.002 C 
HETATM   48  C   UNL     1      12.415  13.593 -21.294  1.00  0.00     0.005 C 
ENDBRANCH  45  47
ENDBRANCH  15  45
TORSDOF 9
ENDMDL
MODEL 5
REMARK VINA RESULT:    -3.507      1.113      1.409
REMARK INTER + INTRA:          -0.828
REMARK INTER:                  -2.095
REMARK INTRA:                   1.266
REMARK UNBOUND:                 4.524
REMARK  9 active torsions:
REMARK  status: ('A' for Active; 'I' for Inactive)
REMARK    1  A    between atoms: C_13  and  C_16 
REMARK    2  A    between atoms: C_14  and  C_17 
REMARK    3  A    between atoms: C_15  and  C_18 
REMARK    4  A    between atoms: C_16  and  C_22 
REMARK    5  A    between atoms: C_17  and  C_23 
REMARK    6  A    between atoms: C_18  and  C_24 
REMARK    7  A    between atoms: C_19  and  C_25 
REMARK    8  A    between atoms: C_20  and  C_26 
REMARK    9  A    between atoms: C_21  and  C_27 
ROOT
HETATM    1  O   UNL     1      11.764   0.878 -23.853  1.00  0.00    -0.304 OA
HETATM    2  O   UNL     1       7.097  -0.374 -25.407  1.00  0.00    -0.304 OA
HETATM    3  O   UNL     1       8.719   3.283 -22.677  1.00  0.00    -0.304 OA
HETATM    4  O   UNL     1      10.618  -0.506 -25.722  1.00  0.00    -0.270 OA
HETATM    5  O   UNL     1      10.568   4.873 -20.240  1.00  0.00    -0.270 OA
HETATM    6  O   UNL     1       8.378   1.924 -25.534  1.00  0.00    -0.270 OA
HETATM    7  O   UNL     1      12.730   1.338 -21.810  1.00  0.00    -0.263 OA
HETATM    8  O   UNL     1       7.544  -0.729 -23.170  1.00  0.00    -0.263 OA
HETATM    9  O   UNL     1       8.719   5.584 -22.646  1.00  0.00    -0.263 OA
HETATM   10  N   UNL     1       9.835  -2.023 -24.151  1.00  0.00    -0.340 N 
HETATM   11  N   UNL     1      11.773   3.945 -21.991  1.00  0.00    -0.340 N 
HETATM   12  N   UNL     1       6.756   3.187 -24.458  1.00  0.00    -0.340 N 
HETATM   13  C   UNL     1       8.552  -2.156 -24.870  1.00  0.00     0.190 C 
HETATM   14  C   UNL     1      11.844   3.127 -23.220  1.00  0.00     0.190 C 
HETATM   15  C   UNL     1       7.610   4.397 -24.458  1.00  0.00     0.190 C 
HETATM   16  C   UNL     1      11.790  -0.550 -23.641  1.00  0.00     0.227 C 
HETATM   17  C   UNL     1       6.311   0.795 -25.102  1.00  0.00     0.227 C 
HETATM   18  C   UNL     1       9.442   3.127 -21.453  1.00  0.00     0.227 C 
HETATM   19  C   UNL     1      10.721  -1.037 -24.610  1.00  0.00     0.250 C 
HETATM   20  C   UNL     1      10.633   4.072 -21.181  1.00  0.00     0.250 C 
HETATM   21  C   UNL     1       7.244   2.011 -25.049  1.00  0.00     0.250 C 
HETATM   22  C   UNL     1      12.184   1.693 -22.844  1.00  0.00     0.283 C 
HETATM   23  C   UNL     1       7.681  -1.019 -24.352  1.00  0.00     0.283 C 
HETATM   24  C   UNL     1       8.373   4.517 -23.138  1.00  0.00     0.283 C 
HETATM   25  C   UNL     1      10.053  -2.810 -22.936  1.00  0.00     0.153 C 
HETATM   26  C   UNL     1      12.977   4.672 -21.591  1.00  0.00     0.153 C 
HETATM   27  C   UNL     1       5.471   3.295 -23.760  1.00  0.00     0.153 C 
ENDROOT
BRANCH  16  28
HETATM   28  C   UNL     1      13.149  -1.113 -24.013  1.00  0.00     0.016 C 
HETATM   29  C   UNL     1      13.026  -2.099 -25.172  1.00  0.00     0.012 C 
HETATM   30  C   UNL     1      13.803  -1.784 -22.806  1.00  0.00     0.012 C 
ENDBRANCH  16  28
BRANCH  14  31
HETATM   31  C   UNL     1      12.818   3.636 -24.280  1.00  0.00     0.014 C 
HETATM   32  C   UNL     1      14.000   2.671 -24.403  1.00  0.00     0.012 C 
BRANCH  31  33
HETATM   33  C   UNL     1      12.147   3.818 -25.652  1.00  0.00     0.002 C 
HETATM   34  C   UNL     1      11.195   5.004 -25.712  1.00  0.00     0.005 C 
ENDBRANCH  31  33
ENDBRANCH  14  31
BRANCH  13  35
HETATM   35  C   UNL     1       7.818  -3.480 -24.712  1.00  0.00     0.014 C 
HETATM   36  C   UNL     1       6.308  -3.233 -24.662  1.00  0.00     0.012 C 
BRANCH  35  37
HETATM   37  C   UNL     1       8.146  -4.473 -25.841  1.00  0.00     0.002 C 
HETATM   38  C   UNL     1       7.452  -4.149 -27.157  1.00  0.00     0.005 C 
ENDBRANCH  35  37
ENDBRANCH  13  35
BRANCH  18  39
HETATM   39  C   UNL     1       8.426   3.163 -20.309  1.00  0.00     0.016 C 
HETATM   40  C   UNL     1       7.046   2.741 -20.805  1.00  0.00     0.012 C 
HETATM   41  C   UNL     1       8.882   2.267 -19.159  1.00  0.00     0.012 C 
ENDBRANCH  18  39
BRANCH  17  42
HETATM   42  C   UNL     1       5.299   0.960 -26.227  1.00  0.00     0.016 C 
HETATM   43  C   UNL     1       3.878   0.739 -25.712  1.00  0.00     0.012 C 
HETATM   44  C   UNL     1       5.607  -0.002 -27.375  1.00  0.00     0.012 C 
ENDBRANCH  17  42
BRANCH  15  45
HETATM   45  C   UNL     1       6.846   5.680 -24.781  1.00  0.00     0.014 C 
HETATM   46  C   UNL     1       6.833   5.914 -26.296  1.00  0.00     0.012 C 
BRANCH  45  47
HETATM   47  C   UNL     1       5.401   5.658 -24.248  1.00  0.00     0.002 C 
HETATM   48  C   UNL     1       4.654   6.965 -24.466  1.00  0.00     0.005 C 
ENDBRANCH  45  47
ENDBRANCH  15  45
TORSDOF 9
ENDMDL
MODEL 6
REMARK VINA RESULT:    -3.278      3.050      8.017
REMARK INTER + INTRA:          -0.478
REMARK INTER:                  -1.602
REMARK INTRA:                   1.124
REMARK UNBOUND:                 4.524
REMARK  9 active torsions:
REMARK  status: ('A' for Active; 'I' for Inactive)
REMARK    1  A    between atoms: C_13  and  C_16 
REMARK    2  A    between atoms: C_14  and  C_17 
REMARK    3  A    between atoms: C_15  and  C_18 
REMARK    4  A    between atoms: C_16  and  C_22 
REMARK    5  A    between atoms: C_17  and  C_23 
REMARK    6  A    between atoms: C_18  and  C_24 
REMARK    7  A    between atoms: C_19  and  C_25 
REMARK    8  A    between atoms: C_20  and  C_26 
REMARK    9  A    between atoms: C_21  and  C_27 
ROOT
HETATM    1  O   UNL     1      10.167   3.643 -22.032  1.00  0.00    -0.304 OA
HETATM    2  O   UNL     1       9.830   8.218 -24.205  1.00  0.00    -0.304 OA
HETATM    3  O   UNL     1       7.243   4.166 -24.793  1.00  0.00    -0.304 OA
HETATM    4  O   UNL     1      10.866   6.097 -21.571  1.00  0.00    -0.270 OA
HETATM    5  O   UNL     1       6.631   0.794 -25.168  1.00  0.00    -0.270 OA
HETATM    6  O   UNL     1       7.980   6.732 -23.061  1.00  0.00    -0.270 OA
HETATM    7  O   UNL     1      10.322   1.478 -22.813  1.00  0.00    -0.263 OA
HETATM    8  O   UNL     1      10.648   6.524 -25.543  1.00  0.00    -0.263 OA
HETATM    9  O   UNL     1       5.065   3.437 -24.643  1.00  0.00    -0.263 OA
HETATM   10  N   UNL     1      12.344   6.036 -23.358  1.00  0.00    -0.340 N 
HETATM   11  N   UNL     1       7.559   1.443 -23.144  1.00  0.00    -0.340 N 
HETATM   12  N   UNL     1       6.512   6.714 -24.859  1.00  0.00    -0.340 N 
HETATM   13  C   UNL     1      12.004   7.425 -23.729  1.00  0.00     0.190 C 
HETATM   14  C   UNL     1       8.157   2.472 -22.268  1.00  0.00     0.190 C 
HETATM   15  C   UNL     1       5.597   5.766 -24.182  1.00  0.00     0.190 C 
HETATM   16  C   UNL     1      11.562   3.923 -22.276  1.00  0.00     0.227 C 
HETATM   17  C   UNL     1       8.555   8.183 -24.877  1.00  0.00     0.227 C 
HETATM   18  C   UNL     1       7.785   2.905 -25.194  1.00  0.00     0.227 C 
HETATM   19  C   UNL     1      11.577   5.444 -22.344  1.00  0.00     0.250 C 
HETATM   20  C   UNL     1       7.257   1.628 -24.503  1.00  0.00     0.250 C 
HETATM   21  C   UNL     1       7.665   7.145 -24.184  1.00  0.00     0.250 C 
HETATM   22  C   UNL     1       9.670   2.431 -22.413  1.00  0.00     0.283 C 
HETATM   23  C   UNL     1      10.770   7.315 -24.615  1.00  0.00     0.283 C 
HETATM   24  C   UNL     1       5.903   4.329 -24.604  1.00  0.00     0.283 C 
HETATM   25  C   UNL     1      13.345   5.316 -24.147  1.00  0.00     0.153 C 
HETATM   26  C   UNL     1       7.262   0.138 -22.552  1.00  0.00     0.153 C 
HETATM   27  C   UNL     1       6.170   7.079 -26.237  1.00  0.00     0.153 C 
ENDROOT
BRANCH  16  28
HETATM   28  C   UNL     1      12.407   3.429 -21.116  1.00  0.00     0.016 C 
HETATM   29  C   UNL     1      13.263   4.561 -20.552  1.00  0.00     0.012 C 
HETATM   30  C   UNL     1      13.288   2.258 -21.550  1.00  0.00     0.012 C 
ENDBRANCH  16  28
BRANCH  14  31
HETATM   31  C   UNL     1       7.770   2.369 -20.794  1.00  0.00     0.014 C 
HETATM   32  C   UNL     1       8.889   2.945 -19.924  1.00  0.00     0.012 C 
BRANCH  31  33
HETATM   33  C   UNL     1       6.445   3.090 -20.485  1.00  0.00     0.002 C 
HETATM   34  C   UNL     1       6.001   2.953 -19.036  1.00  0.00     0.005 C 
ENDBRANCH  31  33
ENDBRANCH  14  31
BRANCH  13  35
HETATM   35  C   UNL     1      13.085   8.221 -24.446  1.00  0.00     0.014 C 
HETATM   36  C   UNL     1      12.448   9.116 -25.513  1.00  0.00     0.012 C 
BRANCH  35  37
HETATM   37  C   UNL     1      13.922   9.079 -23.481  1.00  0.00     0.002 C 
HETATM   38  C   UNL     1      13.884  10.567 -23.800  1.00  0.00     0.005 C 
ENDBRANCH  35  37
ENDBRANCH  13  35
BRANCH  18  39
HETATM   39  C   UNL     1       7.657   2.810 -26.716  1.00  0.00     0.016 C 
HETATM   40  C   UNL     1       8.132   4.103 -27.375  1.00  0.00     0.012 C 
HETATM   41  C   UNL     1       8.445   1.615 -27.247  1.00  0.00     0.012 C 
ENDBRANCH  18  39
BRANCH  17  42
HETATM   42  C   UNL     1       7.942   9.570 -24.745  1.00  0.00     0.016 C 
HETATM   43  C   UNL     1       9.010  10.651 -24.914  1.00  0.00     0.012 C 
HETATM   44  C   UNL     1       7.237   9.723 -23.398  1.00  0.00     0.012 C 
ENDBRANCH  17  42
BRANCH  15  45
HETATM   45  C   UNL     1       4.120   6.103 -24.376  1.00  0.00     0.014 C 
HETATM   46  C   UNL     1       3.284   5.453 -23.269  1.00  0.00     0.012 C 
BRANCH  45  47
HETATM   47  C   UNL     1       3.858   7.622 -24.399  1.00  0.00     0.002 C 
HETATM   48  C   UNL     1       2.501   8.011 -23.832  1.00  0.00     0.005 C 
ENDBRANCH  45  47
ENDBRANCH  15  45
TORSDOF 9
ENDMDL
MODEL 7
REMARK VINA RESULT:    -3.025      3.062      7.871
REMARK INTER + INTRA:          -0.093
REMARK INTER:                  -3.352
REMARK INTRA:                   3.260
REMARK UNBOUND:                 4.524
REMARK  9 active torsions:
REMARK  status: ('A' for Active; 'I' for Inactive)
REMARK    1  A    between atoms: C_13  and  C_16 
REMARK    2  A    between atoms: C_14  and  C_17 
REMARK    3  A    between atoms: C_15  and  C_18 
REMARK    4  A    between atoms: C_16  and  C_22 
REMARK    5  A    between atoms: C_17  and  C_23 
REMARK    6  A    between atoms: C_18  and  C_24 
REMARK    7  A    between atoms: C_19  and  C_25 
REMARK    8  A    between atoms: C_20  and  C_26 
REMARK    9  A    between atoms: C_21  and  C_27 
ROOT
HETATM    1  O   UNL     1      11.533   6.086 -24.253  1.00  0.00    -0.304 OA
HETATM    2  O   UNL     1       6.511   6.744 -24.588  1.00  0.00    -0.304 OA
HETATM    3  O   UNL     1       9.254   2.752 -24.617  1.00  0.00    -0.304 OA
HETATM    4  O   UNL     1       9.738   7.860 -23.660  1.00  0.00    -0.270 OA
HETATM    5  O   UNL     1      11.909   0.708 -25.427  1.00  0.00    -0.270 OA
HETATM    6  O   UNL     1       7.925   5.165 -23.024  1.00  0.00    -0.270 OA
HETATM    7  O   UNL     1      13.116   4.971 -25.507  1.00  0.00    -0.263 OA
HETATM    8  O   UNL     1       7.577   6.104 -26.534  1.00  0.00    -0.263 OA
HETATM    9  O   UNL     1       9.501   0.785 -23.450  1.00  0.00    -0.263 OA
HETATM   10  N   UNL     1       9.316   8.219 -25.913  1.00  0.00    -0.340 N 
HETATM   11  N   UNL     1      12.423   2.610 -24.205  1.00  0.00    -0.340 N 
HETATM   12  N   UNL     1       6.845   3.193 -23.600  1.00  0.00    -0.340 N 
HETATM   13  C   UNL     1       7.869   8.358 -25.654  1.00  0.00     0.190 C 
HETATM   14  C   UNL     1      12.033   3.899 -23.596  1.00  0.00     0.190 C 
HETATM   15  C   UNL     1       7.779   2.373 -22.794  1.00  0.00     0.190 C 
HETATM   16  C   UNL     1      11.474   7.205 -25.165  1.00  0.00     0.227 C 
HETATM   17  C   UNL     1       5.981   5.417 -24.399  1.00  0.00     0.227 C 
HETATM   18  C   UNL     1      10.294   2.486 -25.562  1.00  0.00     0.227 C 
HETATM   19  C   UNL     1      10.117   7.813 -24.837  1.00  0.00     0.250 C 
HETATM   20  C   UNL     1      11.602   1.844 -25.049  1.00  0.00     0.250 C 
HETATM   21  C   UNL     1       7.006   4.587 -23.617  1.00  0.00     0.250 C 
HETATM   22  C   UNL     1      12.322   5.022 -24.579  1.00  0.00     0.283 C 
HETATM   23  C   UNL     1       7.318   6.938 -25.675  1.00  0.00     0.283 C 
HETATM   24  C   UNL     1       8.915   1.837 -23.666  1.00  0.00     0.283 C 
HETATM   25  C   UNL     1       9.809   8.369 -27.284  1.00  0.00     0.153 C 
HETATM   26  C   UNL     1      13.761   2.098 -23.908  1.00  0.00     0.153 C 
HETATM   27  C   UNL     1       5.850   2.461 -24.390  1.00  0.00     0.153 C 
ENDROOT
BRANCH  16  28
HETATM   28  C   UNL     1      12.591   8.187 -24.864  1.00  0.00     0.016 C 
HETATM   29  C   UNL     1      12.360   8.871 -23.519  1.00  0.00     0.012 C 
HETATM   30  C   UNL     1      12.711   9.225 -25.979  1.00  0.00     0.012 C 
ENDBRANCH  16  28
BRANCH  14  31
HETATM   31  C   UNL     1      12.688   4.201 -22.249  1.00  0.00     0.014 C 
HETATM   32  C   UNL     1      13.794   5.243 -22.434  1.00  0.00     0.012 C 
BRANCH  31  33
HETATM   33  C   UNL     1      11.674   4.696 -21.203  1.00  0.00     0.002 C 
HETATM   34  C   UNL     1      10.547   3.710 -20.934  1.00  0.00     0.005 C 
ENDBRANCH  31  33
ENDBRANCH  14  31
BRANCH  13  35
HETATM   35  C   UNL     1       7.084   9.229 -26.625  1.00  0.00     0.014 C 
HETATM   36  C   UNL     1       5.820   8.492 -27.079  1.00  0.00     0.012 C 
BRANCH  35  37
HETATM   37  C   UNL     1       6.702  10.591 -26.018  1.00  0.00     0.002 C 
HETATM   38  C   UNL     1       5.783  10.481 -24.808  1.00  0.00     0.005 C 
ENDBRANCH  35  37
ENDBRANCH  13  35
BRANCH  18  39
HETATM   39  C   UNL     1       9.682   1.670 -26.703  1.00  0.00     0.016 C 
HETATM   40  C   UNL     1       9.240   0.297 -26.204  1.00  0.00     0.012 C 
HETATM   41  C   UNL     1       8.506   2.420 -27.326  1.00  0.00     0.012 C 
ENDBRANCH  18  39
BRANCH  17  42
HETATM   42  C   UNL     1       4.698   5.561 -23.591  1.00  0.00     0.016 C 
HETATM   43  C   UNL     1       3.889   4.265 -23.627  1.00  0.00     0.012 C 
HETATM   44  C   UNL     1       3.860   6.728 -24.112  1.00  0.00     0.012 C 
ENDBRANCH  17  42
BRANCH  15  45
HETATM   45  C   UNL     1       7.090   1.251 -22.020  1.00  0.00     0.014 C 
HETATM   46  C   UNL     1       7.753  -0.093 -22.344  1.00  0.00     0.012 C 
BRANCH  45  47
HETATM   47  C   UNL     1       7.109   1.484 -20.497  1.00  0.00     0.002 C 
HETATM   48  C   UNL     1       6.014   2.422 -20.014  1.00  0.00     0.005 C 
ENDBRANCH  45  47
ENDBRANCH  15  45
TORSDOF 9
ENDMDL
MODEL 8
REMARK VINA RESULT:    -3.006      3.247      9.251
REMARK INTER + INTRA:          -0.063
REMARK INTER:                  -1.145
REMARK INTRA:                   1.081
REMARK UNBOUND:                 4.524
REMARK  9 active torsions:
REMARK  status: ('A' for Active; 'I' for Inactive)
REMARK    1  A    between atoms: C_13  and  C_16 
REMARK    2  A    between atoms: C_14  and  C_17 
REMARK    3  A    between atoms: C_15  and  C_18 
REMARK    4  A    between atoms: C_16  and  C_22 
REMARK    5  A    between atoms: C_17  and  C_23 
REMARK    6  A    between atoms: C_18  and  C_24 
REMARK    7  A    between atoms: C_19  and  C_25 
REMARK    8  A    between atoms: C_20  and  C_26 
REMARK    9  A    between atoms: C_21  and  C_27 
ROOT
HETATM    1  O   UNL     1       7.209   5.891 -25.093  1.00  0.00    -0.304 OA
HETATM    2  O   UNL     1      11.530   8.397 -24.190  1.00  0.00    -0.304 OA
HETATM    3  O   UNL     1      10.234   3.801 -23.384  1.00  0.00    -0.304 OA
HETATM    4  O   UNL     1       8.461   8.011 -25.906  1.00  0.00    -0.270 OA
HETATM    5  O   UNL     1       8.223   1.172 -22.418  1.00  0.00    -0.270 OA
HETATM    6  O   UNL     1      11.113   6.097 -25.404  1.00  0.00    -0.270 OA
HETATM    7  O   UNL     1       5.784   4.595 -23.824  1.00  0.00    -0.263 OA
HETATM    8  O   UNL     1      10.259   7.877 -22.334  1.00  0.00    -0.263 OA
HETATM    9  O   UNL     1      10.907   1.667 -23.924  1.00  0.00    -0.263 OA
HETATM   10  N   UNL     1       8.169   9.007 -23.831  1.00  0.00    -0.340 N 
HETATM   11  N   UNL     1       7.474   2.420 -24.224  1.00  0.00    -0.340 N 
HETATM   12  N   UNL     1      12.565   4.845 -24.096  1.00  0.00    -0.340 N 
HETATM   13  C   UNL     1       9.520   9.602 -23.889  1.00  0.00     0.190 C 
HETATM   14  C   UNL     1       7.589   3.584 -25.127  1.00  0.00     0.190 C 
HETATM   15  C   UNL     1      12.163   3.579 -24.751  1.00  0.00     0.190 C 
HETATM   16  C   UNL     1       6.690   7.131 -24.566  1.00  0.00     0.227 C 
HETATM   17  C   UNL     1      12.473   7.351 -23.883  1.00  0.00     0.227 C 
HETATM   18  C   UNL     1       9.123   3.397 -22.578  1.00  0.00     0.227 C 
HETATM   19  C   UNL     1       7.830   8.101 -24.846  1.00  0.00     0.250 C 
HETATM   20  C   UNL     1       8.250   2.223 -23.071  1.00  0.00     0.250 C 
HETATM   21  C   UNL     1      11.985   6.048 -24.527  1.00  0.00     0.250 C 
HETATM   22  C   UNL     1       6.731   4.718 -24.587  1.00  0.00     0.283 C 
HETATM   23  C   UNL     1      10.456   8.527 -23.353  1.00  0.00     0.283 C 
HETATM   24  C   UNL     1      11.067   2.881 -23.947  1.00  0.00     0.283 C 
HETATM   25  C   UNL     1       7.325   9.277 -22.665  1.00  0.00     0.153 C 
HETATM   26  C   UNL     1       6.479   1.400 -24.558  1.00  0.00     0.153 C 
HETATM   27  C   UNL     1      13.504   4.730 -22.975  1.00  0.00     0.153 C 
ENDROOT
BRANCH  16  28
HETATM   28  C   UNL     1       5.438   7.540 -25.321  1.00  0.00     0.016 C 
HETATM   29  C   UNL     1       5.681   8.825 -26.110  1.00  0.00     0.012 C 
HETATM   30  C   UNL     1       4.262   7.716 -24.361  1.00  0.00     0.012 C 
ENDBRANCH  16  28
BRANCH  14  31
HETATM   31  C   UNL     1       7.234   3.309 -26.587  1.00  0.00     0.014 C 
HETATM   32  C   UNL     1       7.232   4.621 -27.375  1.00  0.00     0.012 C 
BRANCH  31  33
HETATM   33  C   UNL     1       8.200   2.307 -27.244  1.00  0.00     0.002 C 
HETATM   34  C   UNL     1       9.623   2.829 -27.375  1.00  0.00     0.005 C 
ENDBRANCH  31  33
ENDBRANCH  14  31
BRANCH  13  35
HETATM   35  C   UNL     1       9.727  10.898 -23.118  1.00  0.00     0.014 C 
HETATM   36  C   UNL     1      10.608  10.637 -21.893  1.00  0.00     0.012 C 
BRANCH  35  37
HETATM   37  C   UNL     1      10.354  12.004 -23.984  1.00  0.00     0.002 C 
HETATM   38  C   UNL     1       9.999  11.895 -25.461  1.00  0.00     0.005 C 
ENDBRANCH  35  37
ENDBRANCH  13  35
BRANCH  18  39
HETATM   39  C   UNL     1       9.648   3.148 -21.162  1.00  0.00     0.016 C 
HETATM   40  C   UNL     1      10.587   4.271 -20.732  1.00  0.00     0.012 C 
HETATM   41  C   UNL     1       8.488   3.011 -20.177  1.00  0.00     0.012 C 
ENDBRANCH  18  39
BRANCH  17  42
HETATM   42  C   UNL     1      13.809   7.764 -24.484  1.00  0.00     0.016 C 
HETATM   43  C   UNL     1      14.000   9.277 -24.389  1.00  0.00     0.012 C 
HETATM   44  C   UNL     1      13.913   7.303 -25.938  1.00  0.00     0.012 C 
ENDBRANCH  17  42
BRANCH  15  45
HETATM   45  C   UNL     1      13.336   2.641 -25.031  1.00  0.00     0.014 C 
HETATM   46  C   UNL     1      13.077   1.273 -24.390  1.00  0.00     0.012 C 
BRANCH  45  47
HETATM   47  C   UNL     1      13.607   2.464 -26.537  1.00  0.00     0.002 C 
HETATM   48  C   UNL     1      13.329   3.716 -27.354  1.00  0.00     0.005 C 
ENDBRANCH  45  47
ENDBRANCH  15  45
TORSDOF 9
ENDMDL
