MODEL 1
REMARK VINA RESULT:    -6.196      0.000      0.000
REMARK INTER + INTRA:          -4.235
REMARK INTER:                  -5.380
REMARK INTRA:                   1.145
REMARK UNBOUND:                 4.859
REMARK  8 active torsions:
REMARK  status: ('A' for Active; 'I' for Inactive)
REMARK    1  A    between atoms: C_13  and  C_15 
REMARK    2  A    between atoms: C_14  and  C_16 
REMARK    3  A    between atoms: C_15  and  C_22 
REMARK    4  A    between atoms: C_16  and  C_23 
REMARK    5  A    between atoms: C_17  and  C_21 
REMARK    6  A    between atoms: C_18  and  C_24 
REMARK    7  A    between atoms: C_19  and  C_27 
REMARK    8  A    between atoms: C_20  and  C_30 
ROOT
HETATM    1  O   UNL     1       6.714  -1.119 -24.977  1.00  0.00    -0.304 OA
HETATM    2  O   UNL     1       8.365   2.744 -22.568  1.00  0.00    -0.304 OA
HETATM    3  O   UNL     1      11.311   0.019 -23.150  1.00  0.00    -0.304 OA
HETATM    4  O   UNL     1       8.171   1.058 -25.259  1.00  0.00    -0.270 OA
HETATM    5  O   UNL     1       6.940  -1.216 -22.682  1.00  0.00    -0.263 OA
HETATM    6  O   UNL     1      10.230  -1.514 -24.938  1.00  0.00    -0.270 OA
HETATM    7  O   UNL     1       8.536   5.026 -22.815  1.00  0.00    -0.263 OA
HETATM    8  O   UNL     1      10.111   4.509 -20.175  1.00  0.00    -0.270 OA
HETATM    9  O   UNL     1      12.129   0.673 -21.094  1.00  0.00    -0.263 OA
HETATM   10  N   UNL     1       6.563   2.548 -24.502  1.00  0.00    -0.340 N 
HETATM   11  N   UNL     1       9.202  -2.767 -23.277  1.00  0.00    -0.340 N 
HETATM   12  N   UNL     1      11.389   3.291 -21.678  1.00  0.00    -0.340 N 
HETATM   13  C   UNL     1       7.503   3.692 -24.567  1.00  0.00     0.190 C 
HETATM   14  C   UNL     1       7.980  -2.907 -24.092  1.00  0.00     0.190 C 
HETATM   15  C   UNL     1       5.996   0.128 -24.891  1.00  0.00     0.227 C 
HETATM   16  C   UNL     1      11.504   2.321 -22.788  1.00  0.00     0.190 C 
HETATM   17  C   UNL     1      11.211  -1.369 -22.765  1.00  0.00     0.227 C 
HETATM   18  C   UNL     1       8.966   2.699 -21.270  1.00  0.00     0.227 C 
HETATM   19  C   UNL     1       7.010   1.278 -24.897  1.00  0.00     0.250 C 
HETATM   20  C   UNL     1       7.155  -1.660 -23.802  1.00  0.00     0.283 C 
HETATM   21  C   UNL     1      10.196  -1.906 -23.766  1.00  0.00     0.250 C 
HETATM   22  C   UNL     1       8.155   3.929 -23.205  1.00  0.00     0.283 C 
HETATM   23  C   UNL     1      10.197   3.594 -21.002  1.00  0.00     0.250 C 
HETATM   24  C   UNL     1      11.702   0.929 -22.210  1.00  0.00     0.283 C 
HETATM   25  C   UNL     1       5.233   2.825 -23.948  1.00  0.00     0.153 C 
HETATM   26  C   UNL     1       9.254  -3.405 -21.960  1.00  0.00     0.153 C 
HETATM   27  C   UNL     1      12.607   3.985 -21.257  1.00  0.00     0.153 C 
ENDROOT
BRANCH  15  28
HETATM   28  C   UNL     1       5.100   0.211 -26.120  1.00  0.00     0.016 C 
HETATM   29  C   UNL     1       5.930   0.478 -27.375  1.00  0.00     0.012 C 
HETATM   30  C   UNL     1       4.284  -1.070 -26.281  1.00  0.00     0.012 C 
ENDBRANCH  15  28
BRANCH  14  31
HETATM   31  C   UNL     1       7.137  -4.151 -23.846  1.00  0.00     0.014 C 
HETATM   32  C   UNL     1       5.667  -3.755 -23.684  1.00  0.00     0.012 C 
BRANCH  31  33
HETATM   33  C   UNL     1       7.277  -5.186 -24.977  1.00  0.00     0.002 C 
HETATM   34  C   UNL     1       6.911  -4.640 -26.351  1.00  0.00     0.005 C 
ENDBRANCH  31  33
ENDBRANCH  14  31
BRANCH  13  35
HETATM   35  C   UNL     1       6.867   4.969 -25.114  1.00  0.00     0.014 C 
HETATM   36  C   UNL     1       7.264   6.162 -24.239  1.00  0.00     0.012 C 
BRANCH  35  37
HETATM   37  C   UNL     1       7.261   5.242 -26.576  1.00  0.00     0.002 C 
HETATM   38  C   UNL     1       8.172   4.178 -27.170  1.00  0.00     0.005 C 
ENDBRANCH  35  37
ENDBRANCH  13  35
BRANCH  17  39
HETATM   39  C   UNL     1      12.551  -2.060 -22.935  1.00  0.00     0.016 C 
HETATM   40  C   UNL     1      12.993  -2.020 -24.396  1.00  0.00     0.012 C 
HETATM   41  C   UNL     1      12.480  -3.501 -22.435  1.00  0.00     0.012 C 
ENDBRANCH  17  39
BRANCH  18  42
HETATM   42  C   UNL     1       7.861   2.945 -20.242  1.00  0.00     0.016 C 
HETATM   43  C   UNL     1       6.565   2.256 -20.667  1.00  0.00     0.012 C 
HETATM   44  C   UNL     1       8.294   2.465 -18.859  1.00  0.00     0.012 C 
ENDBRANCH  18  42
BRANCH  16  45
HETATM   45  C   UNL     1      12.603   2.627 -23.804  1.00  0.00     0.010 C 
HETATM   46  C   UNL     1      12.020   2.738 -25.212  1.00  0.00     0.012 C 
HETATM   47  C   UNL     1      13.694   1.558 -23.760  1.00  0.00     0.012 C 
ENDBRANCH  16  45
TORSDOF 8
ENDMDL
MODEL 2
REMARK VINA RESULT:    -4.425      4.810      9.673
REMARK INTER + INTRA:          -1.636
REMARK INTER:                  -4.472
REMARK INTRA:                   2.836
REMARK UNBOUND:                 4.859
REMARK  8 active torsions:
REMARK  status: ('A' for Active; 'I' for Inactive)
REMARK    1  A    between atoms: C_13  and  C_15 
REMARK    2  A    between atoms: C_14  and  C_16 
REMARK    3  A    between atoms: C_15  and  C_22 
REMARK    4  A    between atoms: C_16  and  C_23 
REMARK    5  A    between atoms: C_17  and  C_21 
REMARK    6  A    between atoms: C_18  and  C_24 
REMARK    7  A    between atoms: C_19  and  C_27 
REMARK    8  A    between atoms: C_20  and  C_30 
ROOT
HETATM    1  O   UNL     1       6.071   6.542 -24.456  1.00  0.00    -0.304 OA
HETATM    2  O   UNL     1      10.860   7.246 -24.592  1.00  0.00    -0.304 OA
HETATM    3  O   UNL     1       8.927  10.600 -23.386  1.00  0.00    -0.304 OA
HETATM    4  O   UNL     1       8.197   6.775 -22.917  1.00  0.00    -0.270 OA
HETATM    5  O   UNL     1       7.015   7.616 -26.267  1.00  0.00    -0.263 OA
HETATM    6  O   UNL     1       6.572   9.657 -22.855  1.00  0.00    -0.270 OA
HETATM    7  O   UNL     1      12.789   6.372 -23.691  1.00  0.00    -0.263 OA
HETATM    8  O   UNL     1      13.832   8.873 -25.232  1.00  0.00    -0.270 OA
HETATM    9  O   UNL     1      10.565  11.777 -24.505  1.00  0.00    -0.263 OA
HETATM   10  N   UNL     1       9.441   5.104 -23.938  1.00  0.00    -0.340 N 
HETATM   11  N   UNL     1       5.940   9.918 -25.073  1.00  0.00    -0.340 N 
HETATM   12  N   UNL     1      12.430   9.881 -23.685  1.00  0.00    -0.340 N 
HETATM   13  C   UNL     1      10.635   5.402 -23.112  1.00  0.00     0.190 C 
HETATM   14  C   UNL     1       5.183   8.652 -25.041  1.00  0.00     0.190 C 
HETATM   15  C   UNL     1       7.027   5.467 -24.547  1.00  0.00     0.227 C 
HETATM   16  C   UNL     1      11.138   9.961 -22.972  1.00  0.00     0.190 C 
HETATM   17  C   UNL     1       7.854  11.220 -24.127  1.00  0.00     0.227 C 
HETATM   18  C   UNL     1      11.515   8.245 -25.380  1.00  0.00     0.227 C 
HETATM   19  C   UNL     1       8.269   5.847 -23.731  1.00  0.00     0.250 C 
HETATM   20  C   UNL     1       6.202   7.564 -25.354  1.00  0.00     0.283 C 
HETATM   21  C   UNL     1       6.720  10.220 -23.946  1.00  0.00     0.250 C 
HETATM   22  C   UNL     1      11.575   6.354 -23.851  1.00  0.00     0.283 C 
HETATM   23  C   UNL     1      12.701   9.010 -24.752  1.00  0.00     0.250 C 
HETATM   24  C   UNL     1      10.213  10.905 -23.725  1.00  0.00     0.283 C 
HETATM   25  C   UNL     1       9.606   4.084 -24.979  1.00  0.00     0.153 C 
HETATM   26  C   UNL     1       5.955  10.706 -26.308  1.00  0.00     0.153 C 
HETATM   27  C   UNL     1      13.503  10.773 -23.244  1.00  0.00     0.153 C 
ENDROOT
BRANCH  15  28
HETATM   28  C   UNL     1       6.366   4.231 -23.952  1.00  0.00     0.016 C 
HETATM   29  C   UNL     1       4.968   4.563 -23.435  1.00  0.00     0.012 C 
HETATM   30  C   UNL     1       6.302   3.105 -24.983  1.00  0.00     0.012 C 
ENDBRANCH  15  28
BRANCH  14  31
HETATM   31  C   UNL     1       4.002   8.541 -25.996  1.00  0.00     0.014 C 
HETATM   32  C   UNL     1       4.470   7.961 -27.332  1.00  0.00     0.012 C 
BRANCH  31  33
HETATM   33  C   UNL     1       2.865   7.678 -25.422  1.00  0.00     0.002 C 
HETATM   34  C   UNL     1       2.744   7.760 -23.906  1.00  0.00     0.005 C 
ENDBRANCH  31  33
ENDBRANCH  14  31
BRANCH  13  35
HETATM   35  C   UNL     1      11.369   4.151 -22.632  1.00  0.00     0.014 C 
HETATM   36  C   UNL     1      12.386   4.529 -21.552  1.00  0.00     0.012 C 
BRANCH  35  37
HETATM   37  C   UNL     1      10.407   3.079 -22.088  1.00  0.00     0.002 C 
HETATM   38  C   UNL     1       9.824   3.420 -20.724  1.00  0.00     0.005 C 
ENDBRANCH  35  37
ENDBRANCH  13  35
BRANCH  17  39
HETATM   39  C   UNL     1       7.494  12.558 -23.509  1.00  0.00     0.016 C 
HETATM   40  C   UNL     1       7.319  12.422 -21.998  1.00  0.00     0.012 C 
HETATM   41  C   UNL     1       6.226  13.121 -24.147  1.00  0.00     0.012 C 
ENDBRANCH  17  39
BRANCH  18  42
HETATM   42  C   UNL     1      11.906   7.600 -26.710  1.00  0.00     0.016 C 
HETATM   43  C   UNL     1      13.100   6.663 -26.526  1.00  0.00     0.012 C 
HETATM   44  C   UNL     1      10.723   6.846 -27.313  1.00  0.00     0.012 C 
ENDBRANCH  18  42
BRANCH  16  45
HETATM   45  C   UNL     1      11.232  10.381 -21.506  1.00  0.00     0.010 C 
HETATM   46  C   UNL     1      10.145   9.699 -20.677  1.00  0.00     0.012 C 
HETATM   47  C   UNL     1      11.133  11.900 -21.371  1.00  0.00     0.012 C 
ENDBRANCH  16  45
TORSDOF 8
ENDMDL
MODEL 3
REMARK VINA RESULT:    -4.331      3.016      8.022
REMARK INTER + INTRA:          -1.498
REMARK INTER:                  -3.826
REMARK INTRA:                   2.329
REMARK UNBOUND:                 4.859
REMARK  8 active torsions:
REMARK  status: ('A' for Active; 'I' for Inactive)
REMARK    1  A    between atoms: C_13  and  C_15 
REMARK    2  A    between atoms: C_14  and  C_16 
REMARK    3  A    between atoms: C_15  and  C_22 
REMARK    4  A    between atoms: C_16  and  C_23 
REMARK    5  A    between atoms: C_17  and  C_21 
REMARK    6  A    between atoms: C_18  and  C_24 
REMARK    7  A    between atoms: C_19  and  C_27 
REMARK    8  A    between atoms: C_20  and  C_30 
ROOT
HETATM    1  O   UNL     1       5.925   6.243 -24.215  1.00  0.00    -0.304 OA
HETATM    2  O   UNL     1       9.517   3.046 -24.782  1.00  0.00    -0.304 OA
HETATM    3  O   UNL     1      10.930   6.607 -23.454  1.00  0.00    -0.304 OA
HETATM    4  O   UNL     1       7.565   4.678 -22.873  1.00  0.00    -0.270 OA
HETATM    5  O   UNL     1       7.231   6.319 -26.117  1.00  0.00    -0.263 OA
HETATM    6  O   UNL     1       8.738   7.769 -22.706  1.00  0.00    -0.270 OA
HETATM    7  O   UNL     1      10.142   0.958 -24.042  1.00  0.00    -0.263 OA
HETATM    8  O   UNL     1      12.621   1.860 -25.701  1.00  0.00    -0.270 OA
HETATM    9  O   UNL     1      12.805   6.179 -24.728  1.00  0.00    -0.263 OA
HETATM   10  N   UNL     1       7.013   2.714 -23.977  1.00  0.00    -0.340 N 
HETATM   11  N   UNL     1       8.386   8.549 -24.863  1.00  0.00    -0.340 N 
HETATM   12  N   UNL     1      12.600   3.488 -24.050  1.00  0.00    -0.340 N 
HETATM   13  C   UNL     1       8.060   1.946 -23.263  1.00  0.00     0.190 C 
HETATM   14  C   UNL     1       6.934   8.312 -24.748  1.00  0.00     0.190 C 
HETATM   15  C   UNL     1       5.707   4.827 -24.376  1.00  0.00     0.227 C 
HETATM   16  C   UNL     1      11.883   4.484 -23.227  1.00  0.00     0.190 C 
HETATM   17  C   UNL     1      10.670   7.869 -24.106  1.00  0.00     0.227 C 
HETATM   18  C   UNL     1      10.649   3.235 -25.636  1.00  0.00     0.227 C 
HETATM   19  C   UNL     1       6.846   4.075 -23.678  1.00  0.00     0.250 C 
HETATM   20  C   UNL     1       6.731   6.853 -25.135  1.00  0.00     0.283 C 
HETATM   21  C   UNL     1       9.190   8.082 -23.813  1.00  0.00     0.250 C 
HETATM   22  C   UNL     1       9.341   1.883 -24.094  1.00  0.00     0.283 C 
HETATM   23  C   UNL     1      12.035   2.784 -25.126  1.00  0.00     0.250 C 
HETATM   24  C   UNL     1      11.964   5.841 -23.909  1.00  0.00     0.283 C 
HETATM   25  C   UNL     1       6.268   1.994 -25.015  1.00  0.00     0.153 C 
HETATM   26  C   UNL     1       8.917   9.117 -26.105  1.00  0.00     0.153 C 
HETATM   27  C   UNL     1      13.999   3.216 -23.717  1.00  0.00     0.153 C 
ENDROOT
BRANCH  15  28
HETATM   28  C   UNL     1       4.377   4.502 -23.709  1.00  0.00     0.016 C 
HETATM   29  C   UNL     1       4.600   3.952 -22.302  1.00  0.00     0.012 C 
HETATM   30  C   UNL     1       3.480   5.738 -23.665  1.00  0.00     0.012 C 
ENDBRANCH  15  28
BRANCH  14  31
HETATM   31  C   UNL     1       6.031   9.199 -25.594  1.00  0.00     0.014 C 
HETATM   32  C   UNL     1       4.952   8.347 -26.266  1.00  0.00     0.012 C 
BRANCH  31  33
HETATM   33  C   UNL     1       5.372  10.319 -24.769  1.00  0.00     0.002 C 
HETATM   34  C   UNL     1       5.757  10.297 -23.295  1.00  0.00     0.005 C 
ENDBRANCH  31  33
ENDBRANCH  14  31
BRANCH  13  35
HETATM   35  C   UNL     1       7.603   0.553 -22.833  1.00  0.00     0.014 C 
HETATM   36  C   UNL     1       8.563  -0.503 -23.388  1.00  0.00     0.012 C 
BRANCH  35  37
HETATM   37  C   UNL     1       7.505   0.413 -21.303  1.00  0.00     0.002 C 
HETATM   38  C   UNL     1       7.145   1.711 -20.595  1.00  0.00     0.005 C 
ENDBRANCH  35  37
ENDBRANCH  13  35
BRANCH  17  39
HETATM   39  C   UNL     1      11.506   8.968 -23.476  1.00  0.00     0.016 C 
HETATM   40  C   UNL     1      10.620   9.936 -22.696  1.00  0.00     0.012 C 
HETATM   41  C   UNL     1      12.305   9.713 -24.543  1.00  0.00     0.012 C 
ENDBRANCH  17  39
BRANCH  18  42
HETATM   42  C   UNL     1      10.317   2.600 -26.987  1.00  0.00     0.016 C 
HETATM   43  C   UNL     1      10.581   1.094 -26.956  1.00  0.00     0.012 C 
HETATM   44  C   UNL     1       8.866   2.880 -27.374  1.00  0.00     0.012 C 
ENDBRANCH  18  42
BRANCH  16  45
HETATM   45  C   UNL     1      12.362   4.595 -21.782  1.00  0.00     0.010 C 
HETATM   46  C   UNL     1      11.187   4.480 -20.812  1.00  0.00     0.012 C 
HETATM   47  C   UNL     1      13.111   5.909 -21.559  1.00  0.00     0.012 C 
ENDBRANCH  16  45
TORSDOF 8
ENDMDL
MODEL 4
REMARK VINA RESULT:    -4.113      2.059      6.266
REMARK INTER + INTRA:          -1.178
REMARK INTER:                  -3.348
REMARK INTRA:                   2.170
REMARK UNBOUND:                 4.859
REMARK  8 active torsions:
REMARK  status: ('A' for Active; 'I' for Inactive)
REMARK    1  A    between atoms: C_13  and  C_15 
REMARK    2  A    between atoms: C_14  and  C_16 
REMARK    3  A    between atoms: C_15  and  C_22 
REMARK    4  A    between atoms: C_16  and  C_23 
REMARK    5  A    between atoms: C_17  and  C_21 
REMARK    6  A    between atoms: C_18  and  C_24 
REMARK    7  A    between atoms: C_19  and  C_27 
REMARK    8  A    between atoms: C_20  and  C_30 
ROOT
HETATM    1  O   UNL     1      11.514  -1.353 -24.441  1.00  0.00    -0.304 OA
HETATM    2  O   UNL     1      10.567   3.370 -24.933  1.00  0.00    -0.304 OA
HETATM    3  O   UNL     1       7.143   1.219 -24.643  1.00  0.00    -0.304 OA
HETATM    4  O   UNL     1      10.722   0.773 -23.103  1.00  0.00    -0.270 OA
HETATM    5  O   UNL     1      10.932  -0.515 -26.512  1.00  0.00    -0.263 OA
HETATM    6  O   UNL     1       8.049  -1.054 -23.790  1.00  0.00    -0.270 OA
HETATM    7  O   UNL     1      11.026   5.371 -23.891  1.00  0.00    -0.263 OA
HETATM    8  O   UNL     1       8.995   6.207 -26.103  1.00  0.00    -0.270 OA
HETATM    9  O   UNL     1       6.222   2.752 -26.101  1.00  0.00    -0.263 OA
HETATM   10  N   UNL     1      12.527   2.119 -23.660  1.00  0.00    -0.340 N 
HETATM   11  N   UNL     1       8.462  -1.735 -25.970  1.00  0.00    -0.340 N 
HETATM   12  N   UNL     1       7.687   4.760 -24.850  1.00  0.00    -0.340 N 
HETATM   13  C   UNL     1      11.933   3.300 -22.991  1.00  0.00     0.190 C 
HETATM   14  C   UNL     1       9.715  -2.399 -25.561  1.00  0.00     0.190 C 
HETATM   15  C   UNL     1      12.507  -0.323 -24.263  1.00  0.00     0.227 C 
HETATM   16  C   UNL     1       7.494   3.476 -24.144  1.00  0.00     0.190 C 
HETATM   17  C   UNL     1       6.826   0.094 -25.490  1.00  0.00     0.227 C 
HETATM   18  C   UNL     1       9.788   3.940 -25.990  1.00  0.00     0.227 C 
HETATM   19  C   UNL     1      11.834   0.900 -23.628  1.00  0.00     0.250 C 
HETATM   20  C   UNL     1      10.779  -1.310 -25.593  1.00  0.00     0.283 C 
HETATM   21  C   UNL     1       7.807  -0.963 -24.999  1.00  0.00     0.250 C 
HETATM   22  C   UNL     1      11.167   4.159 -23.998  1.00  0.00     0.283 C 
HETATM   23  C   UNL     1       8.803   5.077 -25.641  1.00  0.00     0.250 C 
HETATM   24  C   UNL     1       6.862   2.475 -25.098  1.00  0.00     0.283 C 
HETATM   25  C   UNL     1      13.785   2.341 -24.381  1.00  0.00     0.153 C 
HETATM   26  C   UNL     1       8.053  -1.795 -27.375  1.00  0.00     0.153 C 
HETATM   27  C   UNL     1       6.639   5.772 -24.712  1.00  0.00     0.153 C 
ENDROOT
BRANCH  15  28
HETATM   28  C   UNL     1      13.567  -0.885 -23.325  1.00  0.00     0.016 C 
HETATM   29  C   UNL     1      13.053  -0.915 -21.886  1.00  0.00     0.012 C 
HETATM   30  C   UNL     1      13.995  -2.282 -23.769  1.00  0.00     0.012 C 
ENDBRANCH  15  28
BRANCH  14  31
HETATM   31  C   UNL     1      10.165  -3.583 -26.406  1.00  0.00     0.014 C 
HETATM   32  C   UNL     1      11.661  -3.465 -26.705  1.00  0.00     0.012 C 
BRANCH  31  33
HETATM   33  C   UNL     1       9.873  -4.932 -25.725  1.00  0.00     0.002 C 
HETATM   34  C   UNL     1      10.249  -4.963 -24.249  1.00  0.00     0.005 C 
ENDBRANCH  31  33
ENDBRANCH  14  31
BRANCH  13  35
HETATM   35  C   UNL     1      12.949   4.129 -22.207  1.00  0.00     0.014 C 
HETATM   36  C   UNL     1      13.305   5.393 -22.994  1.00  0.00     0.012 C 
BRANCH  35  37
HETATM   37  C   UNL     1      12.437   4.515 -20.807  1.00  0.00     0.002 C 
HETATM   38  C   UNL     1      13.220   5.651 -20.165  1.00  0.00     0.005 C 
ENDBRANCH  35  37
ENDBRANCH  13  35
BRANCH  17  39
HETATM   39  C   UNL     1       5.394  -0.352 -25.257  1.00  0.00     0.016 C 
HETATM   40  C   UNL     1       5.352  -1.815 -24.821  1.00  0.00     0.012 C 
HETATM   41  C   UNL     1       4.555  -0.143 -26.516  1.00  0.00     0.012 C 
ENDBRANCH  17  39
BRANCH  18  42
HETATM   42  C   UNL     1      10.753   4.357 -27.100  1.00  0.00     0.016 C 
HETATM   43  C   UNL     1      11.464   5.660 -26.737  1.00  0.00     0.012 C 
HETATM   44  C   UNL     1      11.771   3.251 -27.375  1.00  0.00     0.012 C 
ENDBRANCH  18  42
BRANCH  16  45
HETATM   45  C   UNL     1       6.675   3.562 -22.857  1.00  0.00     0.010 C 
HETATM   46  C   UNL     1       7.408   2.878 -21.703  1.00  0.00     0.012 C 
HETATM   47  C   UNL     1       5.292   2.942 -23.054  1.00  0.00     0.012 C 
ENDBRANCH  16  45
TORSDOF 8
ENDMDL
MODEL 5
REMARK VINA RESULT:    -4.039      3.381      9.364
REMARK INTER + INTRA:          -1.069
REMARK INTER:                  -2.445
REMARK INTRA:                   1.376
REMARK UNBOUND:                 4.859
REMARK  8 active torsions:
REMARK  status: ('A' for Active; 'I' for Inactive)
REMARK    1  A    between atoms: C_13  and  C_15 
REMARK    2  A    between atoms: C_14  and  C_16 
REMARK    3  A    between atoms: C_15  and  C_22 
REMARK    4  A    between atoms: C_16  and  C_23 
REMARK    5  A    between atoms: C_17  and  C_21 
REMARK    6  A    between atoms: C_18  and  C_24 
REMARK    7  A    between atoms: C_19  and  C_27 
REMARK    8  A    between atoms: C_20  and  C_30 
ROOT
HETATM    1  O   UNL     1      11.501   8.468 -23.849  1.00  0.00    -0.304 OA
HETATM    2  O   UNL     1      10.188   3.839 -23.306  1.00  0.00    -0.304 OA
HETATM    3  O   UNL     1       7.254   5.986 -25.101  1.00  0.00    -0.304 OA
HETATM    4  O   UNL     1      11.168   6.218 -25.177  1.00  0.00    -0.270 OA
HETATM    5  O   UNL     1      10.128   7.870 -22.093  1.00  0.00    -0.263 OA
HETATM    6  O   UNL     1       8.537   8.141 -25.754  1.00  0.00    -0.270 OA
HETATM    7  O   UNL     1      10.903   1.731 -23.892  1.00  0.00    -0.263 OA
HETATM    8  O   UNL     1       8.139   1.166 -22.565  1.00  0.00    -0.270 OA
HETATM    9  O   UNL     1       5.766   4.634 -23.970  1.00  0.00    -0.263 OA
HETATM   10  N   UNL     1      12.549   4.919 -23.839  1.00  0.00    -0.340 N 
HETATM   11  N   UNL     1       8.121   9.052 -23.661  1.00  0.00    -0.340 N 
HETATM   12  N   UNL     1       7.488   2.483 -24.359  1.00  0.00    -0.340 N 
HETATM   13  C   UNL     1      12.193   3.679 -24.568  1.00  0.00     0.190 C 
HETATM   14  C   UNL     1       9.469   9.652 -23.617  1.00  0.00     0.190 C 
HETATM   15  C   UNL     1      12.430   7.413 -23.531  1.00  0.00     0.227 C 
HETATM   16  C   UNL     1       7.649   3.684 -25.206  1.00  0.00     0.190 C 
HETATM   17  C   UNL     1       6.698   7.201 -24.555  1.00  0.00     0.227 C 
HETATM   18  C   UNL     1       9.035   3.398 -22.582  1.00  0.00     0.227 C 
HETATM   19  C   UNL     1      11.987   6.136 -24.254  1.00  0.00     0.250 C 
HETATM   20  C   UNL     1      10.380   8.560 -23.072  1.00  0.00     0.283 C 
HETATM   21  C   UNL     1       7.847   8.186 -24.729  1.00  0.00     0.250 C 
HETATM   22  C   UNL     1      11.056   2.945 -23.857  1.00  0.00     0.283 C 
HETATM   23  C   UNL     1       8.198   2.241 -23.172  1.00  0.00     0.250 C 
HETATM   24  C   UNL     1       6.754   4.791 -24.671  1.00  0.00     0.283 C 
HETATM   25  C   UNL     1      13.423   4.763 -22.672  1.00  0.00     0.153 C 
HETATM   26  C   UNL     1       7.210   9.271 -22.535  1.00  0.00     0.153 C 
HETATM   27  C   UNL     1       6.520   1.474 -24.792  1.00  0.00     0.153 C 
ENDROOT
BRANCH  15  28
HETATM   28  C   UNL     1      13.796   7.856 -24.037  1.00  0.00     0.016 C 
HETATM   29  C   UNL     1      13.958   7.519 -25.518  1.00  0.00     0.012 C 
HETATM   30  C   UNL     1      14.000   9.352 -23.803  1.00  0.00     0.012 C 
ENDBRANCH  15  28
BRANCH  14  31
HETATM   31  C   UNL     1       9.624  10.916 -22.783  1.00  0.00     0.014 C 
HETATM   32  C   UNL     1      10.596  10.658 -21.629  1.00  0.00     0.012 C 
BRANCH  31  33
HETATM   33  C   UNL     1      10.113  12.112 -23.619  1.00  0.00     0.002 C 
HETATM   34  C   UNL     1      11.049  11.720 -24.754  1.00  0.00     0.005 C 
ENDBRANCH  31  33
ENDBRANCH  14  31
BRANCH  13  35
HETATM   35  C   UNL     1      13.386   2.757 -24.816  1.00  0.00     0.014 C 
HETATM   36  C   UNL     1      13.060   1.344 -24.326  1.00  0.00     0.012 C 
BRANCH  35  37
HETATM   37  C   UNL     1      13.796   2.712 -26.299  1.00  0.00     0.002 C 
HETATM   38  C   UNL     1      13.078   3.740 -27.161  1.00  0.00     0.005 C 
ENDBRANCH  35  37
ENDBRANCH  13  35
BRANCH  17  39
HETATM   39  C   UNL     1       5.490   7.636 -25.364  1.00  0.00     0.016 C 
HETATM   40  C   UNL     1       5.710   9.028 -25.952  1.00  0.00     0.012 C 
HETATM   41  C   UNL     1       4.229   7.610 -24.502  1.00  0.00     0.012 C 
ENDBRANCH  17  39
BRANCH  18  42
HETATM   42  C   UNL     1       9.479   3.094 -21.151  1.00  0.00     0.016 C 
HETATM   43  C   UNL     1      10.460   4.155 -20.652  1.00  0.00     0.012 C 
HETATM   44  C   UNL     1       8.272   3.003 -20.219  1.00  0.00     0.012 C 
ENDBRANCH  18  42
BRANCH  16  45
HETATM   45  C   UNL     1       7.380   3.467 -26.694  1.00  0.00     0.010 C 
HETATM   46  C   UNL     1       8.593   2.833 -27.375  1.00  0.00     0.012 C 
HETATM   47  C   UNL     1       7.014   4.785 -27.375  1.00  0.00     0.012 C 
ENDBRANCH  16  45
TORSDOF 8
ENDMDL
MODEL 6
REMARK VINA RESULT:    -3.708      2.025      4.941
REMARK INTER + INTRA:          -0.583
REMARK INTER:                  -2.873
REMARK INTRA:                   2.290
REMARK UNBOUND:                 4.859
REMARK  8 active torsions:
REMARK  status: ('A' for Active; 'I' for Inactive)
REMARK    1  A    between atoms: C_13  and  C_15 
REMARK    2  A    between atoms: C_14  and  C_16 
REMARK    3  A    between atoms: C_15  and  C_22 
REMARK    4  A    between atoms: C_16  and  C_23 
REMARK    5  A    between atoms: C_17  and  C_21 
REMARK    6  A    between atoms: C_18  and  C_24 
REMARK    7  A    between atoms: C_19  and  C_27 
REMARK    8  A    between atoms: C_20  and  C_30 
ROOT
HETATM    1  O   UNL     1      10.099  -3.292 -25.034  1.00  0.00    -0.304 OA
HETATM    2  O   UNL     1       7.352   0.564 -24.015  1.00  0.00    -0.304 OA
HETATM    3  O   UNL     1      11.024   1.691 -25.313  1.00  0.00    -0.304 OA
HETATM    4  O   UNL     1       8.707  -1.358 -26.157  1.00  0.00    -0.270 OA
HETATM    5  O   UNL     1      10.366  -2.201 -23.017  1.00  0.00    -0.263 OA
HETATM    6  O   UNL     1      11.908  -0.531 -26.309  1.00  0.00    -0.270 OA
HETATM    7  O   UNL     1       5.335   1.492 -24.621  1.00  0.00    -0.263 OA
HETATM    8  O   UNL     1       6.553   3.673 -22.757  1.00  0.00    -0.270 OA
HETATM    9  O   UNL     1      10.842   3.465 -23.848  1.00  0.00    -0.263 OA
HETATM   10  N   UNL     1       6.716  -1.793 -25.048  1.00  0.00    -0.340 N 
HETATM   11  N   UNL     1      12.688  -1.185 -24.224  1.00  0.00    -0.340 N 
HETATM   12  N   UNL     1       8.132   3.635 -24.455  1.00  0.00    -0.340 N 
HETATM   13  C   UNL     1       6.059  -0.599 -25.631  1.00  0.00     0.190 C 
HETATM   14  C   UNL     1      12.282  -2.582 -24.472  1.00  0.00     0.190 C 
HETATM   15  C   UNL     1       8.672  -3.363 -24.848  1.00  0.00     0.227 C 
HETATM   16  C   UNL     1       9.021   2.896 -25.376  1.00  0.00     0.190 C 
HETATM   17  C   UNL     1      12.261   1.226 -24.731  1.00  0.00     0.227 C 
HETATM   18  C   UNL     1       7.689   1.575 -23.060  1.00  0.00     0.227 C 
HETATM   19  C   UNL     1       8.041  -2.082 -25.407  1.00  0.00     0.250 C 
HETATM   20  C   UNL     1      10.818  -2.656 -24.059  1.00  0.00     0.283 C 
HETATM   21  C   UNL     1      12.295  -0.231 -25.174  1.00  0.00     0.250 C 
HETATM   22  C   UNL     1       6.162   0.591 -24.677  1.00  0.00     0.283 C 
HETATM   23  C   UNL     1       7.390   3.048 -23.417  1.00  0.00     0.250 C 
HETATM   24  C   UNL     1      10.392   2.754 -24.734  1.00  0.00     0.283 C 
HETATM   25  C   UNL     1       5.937  -2.553 -24.066  1.00  0.00     0.153 C 
HETATM   26  C   UNL     1      13.340  -0.850 -22.956  1.00  0.00     0.153 C 
HETATM   27  C   UNL     1       8.017   5.082 -24.641  1.00  0.00     0.153 C 
ENDROOT
BRANCH  15  28
HETATM   28  C   UNL     1       8.181  -4.574 -25.631  1.00  0.00     0.016 C 
HETATM   29  C   UNL     1       8.561  -4.453 -27.106  1.00  0.00     0.012 C 
HETATM   30  C   UNL     1       8.743  -5.864 -25.038  1.00  0.00     0.012 C 
ENDBRANCH  15  28
BRANCH  14  31
HETATM   31  C   UNL     1      13.076  -3.660 -23.749  1.00  0.00     0.014 C 
HETATM   32  C   UNL     1      12.122  -4.577 -22.980  1.00  0.00     0.012 C 
BRANCH  31  33
HETATM   33  C   UNL     1      13.940  -4.495 -24.710  1.00  0.00     0.002 C 
HETATM   34  C   UNL     1      13.329  -5.843 -25.065  1.00  0.00     0.005 C 
ENDBRANCH  31  33
ENDBRANCH  14  31
BRANCH  13  35
HETATM   35  C   UNL     1       4.613  -0.850 -26.058  1.00  0.00     0.014 C 
HETATM   36  C   UNL     1       4.277   0.008 -27.281  1.00  0.00     0.012 C 
BRANCH  35  37
HETATM   37  C   UNL     1       4.343  -2.333 -26.374  1.00  0.00     0.002 C 
HETATM   38  C   UNL     1       3.039  -2.568 -27.123  1.00  0.00     0.005 C 
ENDBRANCH  35  37
ENDBRANCH  13  35
BRANCH  17  39
HETATM   39  C   UNL     1      13.435   1.992 -25.312  1.00  0.00     0.016 C 
HETATM   40  C   UNL     1      13.923   3.053 -24.329  1.00  0.00     0.012 C 
HETATM   41  C   UNL     1      13.052   2.631 -26.645  1.00  0.00     0.012 C 
ENDBRANCH  17  39
BRANCH  18  42
HETATM   42  C   UNL     1       7.048   1.182 -21.728  1.00  0.00     0.016 C 
HETATM   43  C   UNL     1       7.331  -0.285 -21.404  1.00  0.00     0.012 C 
HETATM   44  C   UNL     1       7.549   2.084 -20.601  1.00  0.00     0.012 C 
ENDBRANCH  18  42
BRANCH  16  45
HETATM   45  C   UNL     1       9.156   3.504 -26.771  1.00  0.00     0.010 C 
HETATM   46  C   UNL     1       9.990   4.784 -26.724  1.00  0.00     0.012 C 
HETATM   47  C   UNL     1       7.781   3.784 -27.375  1.00  0.00     0.012 C 
ENDBRANCH  16  45
TORSDOF 8
ENDMDL
MODEL 7
REMARK VINA RESULT:    -3.518      4.970      9.610
REMARK INTER + INTRA:          -0.305
REMARK INTER:                  -3.870
REMARK INTRA:                   3.566
REMARK UNBOUND:                 4.859
REMARK  8 active torsions:
REMARK  status: ('A' for Active; 'I' for Inactive)
REMARK    1  A    between atoms: C_13  and  C_15 
REMARK    2  A    between atoms: C_14  and  C_16 
REMARK    3  A    between atoms: C_15  and  C_22 
REMARK    4  A    between atoms: C_16  and  C_23 
REMARK    5  A    between atoms: C_17  and  C_21 
REMARK    6  A    between atoms: C_18  and  C_24 
REMARK    7  A    between atoms: C_19  and  C_27 
REMARK    8  A    between atoms: C_20  and  C_30 
ROOT
HETATM    1  O   UNL     1      10.952   5.479 -22.883  1.00  0.00    -0.304 OA
HETATM    2  O   UNL     1      10.475   9.829 -24.957  1.00  0.00    -0.304 OA
HETATM    3  O   UNL     1       6.865   8.059 -24.433  1.00  0.00    -0.304 OA
HETATM    4  O   UNL     1      10.215   7.961 -22.395  1.00  0.00    -0.270 OA
HETATM    5  O   UNL     1      10.661   5.629 -25.168  1.00  0.00    -0.263 OA
HETATM    6  O   UNL     1       7.478   6.143 -22.799  1.00  0.00    -0.270 OA
HETATM    7  O   UNL     1      10.996  12.034 -24.551  1.00  0.00    -0.263 OA
HETATM    8  O   UNL     1       9.283  12.208 -27.150  1.00  0.00    -0.270 OA
HETATM    9  O   UNL     1       6.236   9.080 -26.404  1.00  0.00    -0.263 OA
HETATM   10  N   UNL     1      12.177   8.963 -23.119  1.00  0.00    -0.340 N 
HETATM   11  N   UNL     1       8.052   4.773 -24.582  1.00  0.00    -0.340 N 
HETATM   12  N   UNL     1       7.732  11.311 -25.678  1.00  0.00    -0.340 N 
HETATM   13  C   UNL     1      11.622  10.325 -22.937  1.00  0.00     0.190 C 
HETATM   14  C   UNL     1       9.194   4.217 -23.831  1.00  0.00     0.190 C 
HETATM   15  C   UNL     1      12.007   6.461 -22.916  1.00  0.00     0.227 C 
HETATM   16  C   UNL     1       7.357  10.336 -24.632  1.00  0.00     0.190 C 
HETATM   17  C   UNL     1       6.540   6.737 -24.914  1.00  0.00     0.227 C 
HETATM   18  C   UNL     1       9.861  10.063 -26.228  1.00  0.00     0.227 C 
HETATM   19  C   UNL     1      11.382   7.855 -22.790  1.00  0.00     0.250 C 
HETATM   20  C   UNL     1      10.346   5.183 -24.073  1.00  0.00     0.283 C 
HETATM   21  C   UNL     1       7.370   5.849 -23.995  1.00  0.00     0.250 C 
HETATM   22  C   UNL     1      11.041  10.848 -24.251  1.00  0.00     0.283 C 
HETATM   23  C   UNL     1       8.947  11.299 -26.383  1.00  0.00     0.250 C 
HETATM   24  C   UNL     1       6.742   9.112 -25.292  1.00  0.00     0.283 C 
HETATM   25  C   UNL     1      13.517   8.878 -23.709  1.00  0.00     0.153 C 
HETATM   26  C   UNL     1       7.786   4.281 -25.936  1.00  0.00     0.153 C 
HETATM   27  C   UNL     1       6.768  12.363 -25.999  1.00  0.00     0.153 C 
ENDROOT
BRANCH  15  28
HETATM   28  C   UNL     1      12.913   6.183 -21.724  1.00  0.00     0.016 C 
HETATM   29  C   UNL     1      12.098   5.676 -20.535  1.00  0.00     0.012 C 
HETATM   30  C   UNL     1      13.999   5.175 -22.096  1.00  0.00     0.012 C 
ENDBRANCH  15  28
BRANCH  14  31
HETATM   31  C   UNL     1       9.624   2.802 -24.195  1.00  0.00     0.014 C 
HETATM   32  C   UNL     1      11.152   2.719 -24.228  1.00  0.00     0.012 C 
BRANCH  31  33
HETATM   33  C   UNL     1       9.065   1.752 -23.219  1.00  0.00     0.002 C 
HETATM   34  C   UNL     1       9.060   2.210 -21.768  1.00  0.00     0.005 C 
ENDBRANCH  31  33
ENDBRANCH  14  31
BRANCH  13  35
HETATM   35  C   UNL     1      12.620  11.312 -22.334  1.00  0.00     0.014 C 
HETATM   36  C   UNL     1      13.192  12.210 -23.435  1.00  0.00     0.012 C 
BRANCH  35  37
HETATM   37  C   UNL     1      11.992  12.181 -21.229  1.00  0.00     0.002 C 
HETATM   38  C   UNL     1      12.419  13.641 -21.286  1.00  0.00     0.005 C 
ENDBRANCH  35  37
ENDBRANCH  13  35
BRANCH  17  39
HETATM   39  C   UNL     1       5.059   6.461 -24.733  1.00  0.00     0.016 C 
HETATM   40  C   UNL     1       4.362   7.664 -24.102  1.00  0.00     0.012 C 
HETATM   41  C   UNL     1       4.845   5.210 -23.882  1.00  0.00     0.012 C 
ENDBRANCH  17  39
BRANCH  18  42
HETATM   42  C   UNL     1      10.967  10.050 -27.283  1.00  0.00     0.016 C 
HETATM   43  C   UNL     1      11.987  11.156 -27.010  1.00  0.00     0.012 C 
HETATM   44  C   UNL     1      11.655   8.687 -27.327  1.00  0.00     0.012 C 
ENDBRANCH  18  42
BRANCH  16  45
HETATM   45  C   UNL     1       6.421  10.874 -23.552  1.00  0.00     0.010 C 
HETATM   46  C   UNL     1       6.891  10.439 -22.164  1.00  0.00     0.012 C 
HETATM   47  C   UNL     1       4.986  10.410 -23.800  1.00  0.00     0.012 C 
ENDBRANCH  16  45
TORSDOF 8
ENDMDL
