MODEL 1
REMARK VINA RESULT:    -5.626      0.000      0.000
REMARK INTER + INTRA:          -1.985
REMARK INTER:                  -4.480
REMARK INTRA:                   2.495
REMARK UNBOUND:                 5.943
REMARK  7 active torsions:
REMARK  status: ('A' for Active; 'I' for Inactive)
REMARK    1  A    between atoms: C_13  and  C_14 
REMARK    2  A    between atoms: C_14  and  C_19 
REMARK    3  A    between atoms: C_15  and  C_20 
REMARK    4  A    between atoms: C_16  and  C_21 
REMARK    5  A    between atoms: C_17  and  C_23 
REMARK    6  A    between atoms: C_18  and  C_26 
REMARK    7  A    between atoms: C_22  and  C_28 
ROOT
HETATM    1  O   UNL     1       6.061   6.246 -24.023  1.00  0.00    -0.304 OA
HETATM    2  O   UNL     1      10.206   9.415 -24.285  1.00  0.00    -0.304 OA
HETATM    3  O   UNL     1      10.897   4.829 -25.199  1.00  0.00    -0.304 OA
HETATM    4  O   UNL     1       7.832   8.663 -22.285  1.00  0.00    -0.270 OA
HETATM    5  O   UNL     1       7.023   7.068 -25.951  1.00  0.00    -0.263 OA
HETATM    6  O   UNL     1       8.324   5.812 -22.837  1.00  0.00    -0.270 OA
HETATM    7  O   UNL     1      13.369   6.921 -25.055  1.00  0.00    -0.270 OA
HETATM    8  O   UNL     1      11.405  11.313 -24.774  1.00  0.00    -0.263 OA
HETATM    9  O   UNL     1      12.370   4.646 -23.439  1.00  0.00    -0.263 OA
HETATM   10  N   UNL     1       7.192   9.431 -24.380  1.00  0.00    -0.340 N 
HETATM   11  N   UNL     1       8.845   3.823 -23.897  1.00  0.00    -0.340 N 
HETATM   12  N   UNL     1      11.495   7.869 -26.057  1.00  0.00    -0.340 N 
HETATM   13  C   UNL     1       5.985   8.581 -24.352  1.00  0.00     0.190 C 
HETATM   14  C   UNL     1      10.140   3.762 -23.186  1.00  0.00     0.190 C 
HETATM   15  C   UNL     1      11.998   9.248 -25.880  1.00  0.00     0.190 C 
HETATM   16  C   UNL     1       9.373  10.143 -23.361  1.00  0.00     0.227 C 
HETATM   17  C   UNL     1       6.610   4.931 -24.255  1.00  0.00     0.227 C 
HETATM   18  C   UNL     1      11.854   5.389 -26.116  1.00  0.00     0.227 C 
HETATM   19  C   UNL     1       8.071   9.350 -23.285  1.00  0.00     0.250 C 
HETATM   20  C   UNL     1       6.416   7.231 -24.900  1.00  0.00     0.283 C 
HETATM   21  C   UNL     1       7.996   4.901 -23.604  1.00  0.00     0.250 C 
HETATM   22  C   UNL     1      12.313   6.789 -25.682  1.00  0.00     0.250 C 
HETATM   23  C   UNL     1      11.173  10.119 -24.936  1.00  0.00     0.283 C 
HETATM   24  C   UNL     1      11.263   4.473 -23.938  1.00  0.00     0.283 C 
HETATM   25  C   UNL     1       7.411  10.272 -25.561  1.00  0.00     0.153 C 
HETATM   26  C   UNL     1       8.555   2.779 -24.882  1.00  0.00     0.153 C 
HETATM   27  C   UNL     1      10.237   7.696 -26.784  1.00  0.00     0.153 C 
ENDROOT
BRANCH  17  28
HETATM   28  C   UNL     1       5.677   3.938 -23.576  1.00  0.00     0.016 C 
HETATM   29  C   UNL     1       6.317   3.377 -22.307  1.00  0.00     0.012 C 
HETATM   30  C   UNL     1       4.335   4.593 -23.253  1.00  0.00     0.012 C 
ENDBRANCH  17  28
BRANCH  13  31
HETATM   31  C   UNL     1       4.781   9.104 -25.128  1.00  0.00     0.014 C 
HETATM   32  C   UNL     1       4.654   8.354 -26.456  1.00  0.00     0.012 C 
BRANCH  31  33
HETATM   33  C   UNL     1       3.510   8.987 -24.268  1.00  0.00     0.002 C 
HETATM   34  C   UNL     1       2.881   7.601 -24.291  1.00  0.00     0.005 C 
ENDBRANCH  31  33
ENDBRANCH  13  31
BRANCH  14  35
HETATM   35  C   UNL     1      10.579   2.342 -22.829  1.00  0.00     0.010 C 
HETATM   36  C   UNL     1      11.737   1.895 -23.719  1.00  0.00     0.012 C 
HETATM   37  C   UNL     1      10.973   2.252 -21.354  1.00  0.00     0.012 C 
ENDBRANCH  14  35
BRANCH  16  38
HETATM   38  C   UNL     1      10.078  10.201 -22.008  1.00  0.00     0.016 C 
HETATM   39  C   UNL     1      10.711  11.574 -21.789  1.00  0.00     0.012 C 
HETATM   40  C   UNL     1      11.134   9.102 -21.903  1.00  0.00     0.012 C 
ENDBRANCH  16  38
BRANCH  18  41
HETATM   41  C   UNL     1      13.022   4.437 -26.370  1.00  0.00     0.016 C 
HETATM   42  C   UNL     1      14.000   5.044 -27.373  1.00  0.00     0.012 C 
HETATM   43  C   UNL     1      12.514   3.085 -26.865  1.00  0.00     0.012 C 
ENDBRANCH  18  41
BRANCH  15  44
HETATM   44  C   UNL     1      12.187   9.947 -27.227  1.00  0.00     0.010 C 
HETATM   45  C   UNL     1      13.620  10.449 -27.373  1.00  0.00     0.012 C 
HETATM   46  C   UNL     1      11.195  11.097 -27.374  1.00  0.00     0.012 C 
ENDBRANCH  15  44
TORSDOF 7
ENDMDL
MODEL 2
REMARK VINA RESULT:    -4.826      2.501      6.861
REMARK INTER + INTRA:          -0.858
REMARK INTER:                  -2.470
REMARK INTRA:                   1.612
REMARK UNBOUND:                 5.943
REMARK  7 active torsions:
REMARK  status: ('A' for Active; 'I' for Inactive)
REMARK    1  A    between atoms: C_13  and  C_14 
REMARK    2  A    between atoms: C_14  and  C_19 
REMARK    3  A    between atoms: C_15  and  C_20 
REMARK    4  A    between atoms: C_16  and  C_21 
REMARK    5  A    between atoms: C_17  and  C_23 
REMARK    6  A    between atoms: C_18  and  C_26 
REMARK    7  A    between atoms: C_22  and  C_28 
ROOT
HETATM    1  O   UNL     1      10.921   1.340 -25.037  1.00  0.00    -0.304 OA
HETATM    2  O   UNL     1       6.903   4.367 -23.628  1.00  0.00    -0.304 OA
HETATM    3  O   UNL     1      11.108   6.446 -24.214  1.00  0.00    -0.304 OA
HETATM    4  O   UNL     1       8.358   1.669 -22.731  1.00  0.00    -0.270 OA
HETATM    5  O   UNL     1       9.719   2.735 -26.424  1.00  0.00    -0.263 OA
HETATM    6  O   UNL     1      10.960   3.011 -23.055  1.00  0.00    -0.270 OA
HETATM    7  O   UNL     1       8.545   8.087 -23.097  1.00  0.00    -0.270 OA
HETATM    8  O   UNL     1       4.748   5.162 -23.595  1.00  0.00    -0.263 OA
HETATM    9  O   UNL     1      11.135   7.132 -22.017  1.00  0.00    -0.263 OA
HETATM   10  N   UNL     1       7.546   1.712 -24.904  1.00  0.00    -0.340 N 
HETATM   11  N   UNL     1      12.668   4.364 -23.832  1.00  0.00    -0.340 N 
HETATM   12  N   UNL     1       7.941   6.569 -24.753  1.00  0.00    -0.340 N 
HETATM   13  C   UNL     1       8.641   0.831 -25.359  1.00  0.00     0.190 C 
HETATM   14  C   UNL     1      12.512   5.261 -22.668  1.00  0.00     0.190 C 
HETATM   15  C   UNL     1       6.510   6.615 -24.386  1.00  0.00     0.190 C 
HETATM   16  C   UNL     1       6.474   3.095 -23.104  1.00  0.00     0.227 C 
HETATM   17  C   UNL     1      12.053   2.238 -25.038  1.00  0.00     0.227 C 
HETATM   18  C   UNL     1      10.261   7.513 -24.676  1.00  0.00     0.227 C 
HETATM   19  C   UNL     1       7.539   2.097 -23.552  1.00  0.00     0.250 C 
HETATM   20  C   UNL     1       9.800   1.753 -25.698  1.00  0.00     0.283 C 
HETATM   21  C   UNL     1      11.840   3.233 -23.894  1.00  0.00     0.250 C 
HETATM   22  C   UNL     1       8.845   7.417 -24.090  1.00  0.00     0.250 C 
HETATM   23  C   UNL     1       5.942   5.308 -23.841  1.00  0.00     0.283 C 
HETATM   24  C   UNL     1      11.498   6.377 -22.913  1.00  0.00     0.283 C 
HETATM   25  C   UNL     1       6.564   2.154 -25.900  1.00  0.00     0.153 C 
HETATM   26  C   UNL     1      13.647   4.734 -24.857  1.00  0.00     0.153 C 
HETATM   27  C   UNL     1       8.315   5.766 -25.919  1.00  0.00     0.153 C 
ENDROOT
BRANCH  17  28
HETATM   28  C   UNL     1      13.290   1.388 -24.788  1.00  0.00     0.016 C 
HETATM   29  C   UNL     1      12.993   0.291 -23.767  1.00  0.00     0.012 C 
HETATM   30  C   UNL     1      13.801   0.780 -26.093  1.00  0.00     0.012 C 
ENDBRANCH  17  28
BRANCH  13  31
HETATM   31  C   UNL     1       8.323  -0.072 -26.545  1.00  0.00     0.014 C 
HETATM   32  C   UNL     1       9.587  -0.305 -27.374  1.00  0.00     0.012 C 
BRANCH  31  33
HETATM   33  C   UNL     1       7.699  -1.389 -26.050  1.00  0.00     0.002 C 
HETATM   34  C   UNL     1       8.220  -1.841 -24.693  1.00  0.00     0.005 C 
ENDBRANCH  31  33
ENDBRANCH  13  31
BRANCH  14  35
HETATM   35  C   UNL     1      13.827   5.862 -22.173  1.00  0.00     0.010 C 
HETATM   36  C   UNL     1      13.892   7.354 -22.487  1.00  0.00     0.012 C 
HETATM   37  C   UNL     1      13.999   5.623 -20.673  1.00  0.00     0.012 C 
ENDBRANCH  14  35
BRANCH  16  38
HETATM   38  C   UNL     1       6.397   3.193 -21.583  1.00  0.00     0.016 C 
HETATM   39  C   UNL     1       7.786   3.402 -20.984  1.00  0.00     0.012 C 
HETATM   40  C   UNL     1       5.743   1.943 -20.995  1.00  0.00     0.012 C 
ENDBRANCH  16  38
BRANCH  18  41
HETATM   41  C   UNL     1      10.900   8.883 -24.453  1.00  0.00     0.016 C 
HETATM   42  C   UNL     1       9.905   9.998 -24.767  1.00  0.00     0.012 C 
HETATM   43  C   UNL     1      12.160   9.033 -25.303  1.00  0.00     0.012 C 
ENDBRANCH  18  41
BRANCH  15  44
HETATM   44  C   UNL     1       5.655   7.128 -25.546  1.00  0.00     0.010 C 
HETATM   45  C   UNL     1       6.525   7.845 -26.575  1.00  0.00     0.012 C 
HETATM   46  C   UNL     1       4.556   8.052 -25.032  1.00  0.00     0.012 C 
ENDBRANCH  15  44
TORSDOF 7
ENDMDL
MODEL 3
REMARK VINA RESULT:    -4.574      2.954      8.104
REMARK INTER + INTRA:          -0.503
REMARK INTER:                  -1.760
REMARK INTRA:                   1.257
REMARK UNBOUND:                 5.943
REMARK  7 active torsions:
REMARK  status: ('A' for Active; 'I' for Inactive)
REMARK    1  A    between atoms: C_13  and  C_14 
REMARK    2  A    between atoms: C_14  and  C_19 
REMARK    3  A    between atoms: C_15  and  C_20 
REMARK    4  A    between atoms: C_16  and  C_21 
REMARK    5  A    between atoms: C_17  and  C_23 
REMARK    6  A    between atoms: C_18  and  C_26 
REMARK    7  A    between atoms: C_22  and  C_28 
ROOT
HETATM    1  O   UNL     1      11.434   0.342 -24.497  1.00  0.00    -0.304 OA
HETATM    2  O   UNL     1       7.232   2.497 -22.263  1.00  0.00    -0.304 OA
HETATM    3  O   UNL     1      10.180   5.361 -24.599  1.00  0.00    -0.304 OA
HETATM    4  O   UNL     1       9.677   0.579 -21.522  1.00  0.00    -0.270 OA
HETATM    5  O   UNL     1       9.500   0.983 -25.576  1.00  0.00    -0.263 OA
HETATM    6  O   UNL     1      11.494   2.413 -22.941  1.00  0.00    -0.270 OA
HETATM    7  O   UNL     1       7.656   6.521 -22.927  1.00  0.00    -0.270 OA
HETATM    8  O   UNL     1       5.041   2.696 -21.604  1.00  0.00    -0.263 OA
HETATM    9  O   UNL     1      10.610   6.566 -22.685  1.00  0.00    -0.263 OA
HETATM   10  N   UNL     1       8.308  -0.140 -23.253  1.00  0.00    -0.340 N 
HETATM   11  N   UNL     1      12.371   3.914 -24.467  1.00  0.00    -0.340 N 
HETATM   12  N   UNL     1       7.130   4.529 -24.009  1.00  0.00    -0.340 N 
HETATM   13  C   UNL     1       9.452  -0.798 -23.918  1.00  0.00     0.190 C 
HETATM   14  C   UNL     1      12.272   5.008 -23.476  1.00  0.00     0.190 C 
HETATM   15  C   UNL     1       5.930   4.300 -23.177  1.00  0.00     0.190 C 
HETATM   16  C   UNL     1       7.409   1.334 -21.431  1.00  0.00     0.227 C 
HETATM   17  C   UNL     1      12.162   1.468 -25.034  1.00  0.00     0.227 C 
HETATM   18  C   UNL     1       8.937   6.023 -24.896  1.00  0.00     0.227 C 
HETATM   19  C   UNL     1       8.564   0.561 -22.061  1.00  0.00     0.250 C 
HETATM   20  C   UNL     1      10.100   0.272 -24.781  1.00  0.00     0.283 C 
HETATM   21  C   UNL     1      11.975   2.632 -24.058  1.00  0.00     0.250 C 
HETATM   22  C   UNL     1       7.859   5.720 -23.845  1.00  0.00     0.250 C 
HETATM   23  C   UNL     1       5.999   3.074 -22.271  1.00  0.00     0.283 C 
HETATM   24  C   UNL     1      10.926   5.727 -23.522  1.00  0.00     0.283 C 
HETATM   25  C   UNL     1       6.995  -0.232 -23.898  1.00  0.00     0.153 C 
HETATM   26  C   UNL     1      12.840   4.249 -25.813  1.00  0.00     0.153 C 
HETATM   27  C   UNL     1       7.395   3.581 -25.091  1.00  0.00     0.153 C 
ENDROOT
BRANCH  17  28
HETATM   28  C   UNL     1      13.625   1.054 -25.103  1.00  0.00     0.016 C 
HETATM   29  C   UNL     1      13.996   0.183 -23.903  1.00  0.00     0.012 C 
HETATM   30  C   UNL     1      13.918   0.318 -26.409  1.00  0.00     0.012 C 
ENDBRANCH  17  28
BRANCH  13  31
HETATM   31  C   UNL     1       9.119  -2.023 -24.762  1.00  0.00     0.014 C 
HETATM   32  C   UNL     1      10.067  -2.102 -25.960  1.00  0.00     0.012 C 
BRANCH  31  33
HETATM   33  C   UNL     1       9.173  -3.291 -23.891  1.00  0.00     0.002 C 
HETATM   34  C   UNL     1      10.121  -3.180 -22.706  1.00  0.00     0.005 C 
ENDBRANCH  31  33
ENDBRANCH  13  31
BRANCH  14  35
HETATM   35  C   UNL     1      13.405   6.029 -23.572  1.00  0.00     0.010 C 
HETATM   36  C   UNL     1      12.911   7.324 -24.213  1.00  0.00     0.012 C 
HETATM   37  C   UNL     1      13.999   6.308 -22.192  1.00  0.00     0.012 C 
ENDBRANCH  14  35
BRANCH  16  38
HETATM   38  C   UNL     1       7.742   1.792 -20.014  1.00  0.00     0.016 C 
HETATM   39  C   UNL     1       6.466   2.016 -19.205  1.00  0.00     0.012 C 
HETATM   40  C   UNL     1       8.587   3.064 -20.043  1.00  0.00     0.012 C 
ENDBRANCH  16  38
BRANCH  18  41
HETATM   41  C   UNL     1       9.132   7.521 -25.127  1.00  0.00     0.016 C 
HETATM   42  C   UNL     1       7.784   8.235 -25.185  1.00  0.00     0.012 C 
HETATM   43  C   UNL     1       9.927   7.768 -26.408  1.00  0.00     0.012 C 
ENDBRANCH  18  41
BRANCH  15  44
HETATM   44  C   UNL     1       4.662   4.266 -24.030  1.00  0.00     0.010 C 
HETATM   45  C   UNL     1       3.649   5.288 -23.523  1.00  0.00     0.012 C 
HETATM   46  C   UNL     1       4.058   2.864 -24.032  1.00  0.00     0.012 C 
ENDBRANCH  15  44
TORSDOF 7
ENDMDL
MODEL 4
REMARK VINA RESULT:    -4.339      3.065      5.340
REMARK INTER + INTRA:          -0.171
REMARK INTER:                  -2.874
REMARK INTRA:                   2.702
REMARK UNBOUND:                 5.943
REMARK  7 active torsions:
REMARK  status: ('A' for Active; 'I' for Inactive)
REMARK    1  A    between atoms: C_13  and  C_14 
REMARK    2  A    between atoms: C_14  and  C_19 
REMARK    3  A    between atoms: C_15  and  C_20 
REMARK    4  A    between atoms: C_16  and  C_21 
REMARK    5  A    between atoms: C_17  and  C_23 
REMARK    6  A    between atoms: C_18  and  C_26 
REMARK    7  A    between atoms: C_22  and  C_28 
ROOT
HETATM    1  O   UNL     1       6.600   4.456 -23.995  1.00  0.00    -0.304 OA
HETATM    2  O   UNL     1      11.770   3.777 -23.677  1.00  0.00    -0.304 OA
HETATM    3  O   UNL     1       9.155   0.072 -25.008  1.00  0.00    -0.304 OA
HETATM    4  O   UNL     1       9.339   4.865 -21.914  1.00  0.00    -0.270 OA
HETATM    5  O   UNL     1       8.076   4.413 -25.766  1.00  0.00    -0.263 OA
HETATM    6  O   UNL     1       7.755   2.517 -22.722  1.00  0.00    -0.270 OA
HETATM    7  O   UNL     1      12.345  -0.199 -24.500  1.00  0.00    -0.270 OA
HETATM    8  O   UNL     1      14.000   4.286 -23.895  1.00  0.00    -0.263 OA
HETATM    9  O   UNL     1       9.862  -1.149 -23.189  1.00  0.00    -0.263 OA
HETATM   10  N   UNL     1       9.667   5.920 -23.955  1.00  0.00    -0.340 N 
HETATM   11  N   UNL     1       6.854   0.772 -23.945  1.00  0.00    -0.340 N 
HETATM   12  N   UNL     1      11.802   1.824 -25.514  1.00  0.00    -0.340 N 
HETATM   13  C   UNL     1       8.217   6.171 -24.088  1.00  0.00     0.190 C 
HETATM   14  C   UNL     1       7.642  -0.207 -23.165  1.00  0.00     0.190 C 
HETATM   15  C   UNL     1      13.101   2.438 -25.167  1.00  0.00     0.190 C 
HETATM   16  C   UNL     1      11.585   4.853 -22.737  1.00  0.00     0.227 C 
HETATM   17  C   UNL     1       6.094   3.144 -24.325  1.00  0.00     0.227 C 
HETATM   18  C   UNL     1      10.327  -0.182 -25.803  1.00  0.00     0.227 C 
HETATM   19  C   UNL     1      10.104   5.210 -22.822  1.00  0.00     0.250 C 
HETATM   20  C   UNL     1       7.641   4.927 -24.744  1.00  0.00     0.283 C 
HETATM   21  C   UNL     1       6.975   2.125 -23.597  1.00  0.00     0.250 C 
HETATM   22  C   UNL     1      11.580   0.472 -25.201  1.00  0.00     0.250 C 
HETATM   23  C   UNL     1      13.020   3.610 -24.192  1.00  0.00     0.283 C 
HETATM   24  C   UNL     1       9.018  -0.474 -23.770  1.00  0.00     0.283 C 
HETATM   25  C   UNL     1      10.546   6.394 -25.029  1.00  0.00     0.153 C 
HETATM   26  C   UNL     1       6.033   0.267 -25.047  1.00  0.00     0.153 C 
HETATM   27  C   UNL     1      10.878   2.611 -26.331  1.00  0.00     0.153 C 
ENDROOT
BRANCH  17  28
HETATM   28  C   UNL     1       4.663   3.082 -23.810  1.00  0.00     0.016 C 
HETATM   29  C   UNL     1       4.632   2.600 -22.360  1.00  0.00     0.012 C 
HETATM   30  C   UNL     1       3.985   4.446 -23.934  1.00  0.00     0.012 C 
ENDBRANCH  17  28
BRANCH  13  31
HETATM   31  C   UNL     1       7.824   7.413 -24.880  1.00  0.00     0.014 C 
HETATM   32  C   UNL     1       6.896   7.023 -26.032  1.00  0.00     0.012 C 
BRANCH  31  33
HETATM   33  C   UNL     1       7.186   8.453 -23.943  1.00  0.00     0.002 C 
HETATM   34  C   UNL     1       7.586   9.888 -24.257  1.00  0.00     0.005 C 
ENDBRANCH  31  33
ENDBRANCH  13  31
BRANCH  14  35
HETATM   35  C   UNL     1       6.917  -1.531 -22.928  1.00  0.00     0.010 C 
HETATM   36  C   UNL     1       6.963  -2.404 -24.181  1.00  0.00     0.012 C 
HETATM   37  C   UNL     1       7.523  -2.273 -21.737  1.00  0.00     0.012 C 
ENDBRANCH  14  35
BRANCH  16  38
HETATM   38  C   UNL     1      11.967   4.358 -21.344  1.00  0.00     0.016 C 
HETATM   39  C   UNL     1      13.236   5.052 -20.853  1.00  0.00     0.012 C 
HETATM   40  C   UNL     1      12.153   2.841 -21.344  1.00  0.00     0.012 C 
ENDBRANCH  16  38
BRANCH  18  41
HETATM   41  C   UNL     1      10.515  -1.673 -26.080  1.00  0.00     0.016 C 
HETATM   42  C   UNL     1      11.857  -1.928 -26.760  1.00  0.00     0.012 C 
HETATM   43  C   UNL     1       9.369  -2.207 -26.936  1.00  0.00     0.012 C 
ENDBRANCH  18  41
BRANCH  15  44
HETATM   44  C   UNL     1      13.879   2.839 -26.422  1.00  0.00     0.010 C 
HETATM   45  C   UNL     1      13.206   4.021 -27.113  1.00  0.00     0.012 C 
HETATM   46  C   UNL     1      14.000   1.653 -27.375  1.00  0.00     0.012 C 
ENDBRANCH  15  44
TORSDOF 7
ENDMDL
MODEL 5
REMARK VINA RESULT:    -4.180      2.022      5.796
REMARK INTER + INTRA:           0.053
REMARK INTER:                  -2.170
REMARK INTRA:                   2.223
REMARK UNBOUND:                 5.943
REMARK  7 active torsions:
REMARK  status: ('A' for Active; 'I' for Inactive)
REMARK    1  A    between atoms: C_13  and  C_14 
REMARK    2  A    between atoms: C_14  and  C_19 
REMARK    3  A    between atoms: C_15  and  C_20 
REMARK    4  A    between atoms: C_16  and  C_21 
REMARK    5  A    between atoms: C_17  and  C_23 
REMARK    6  A    between atoms: C_18  and  C_26 
REMARK    7  A    between atoms: C_22  and  C_28 
ROOT
HETATM    1  O   UNL     1       8.911   9.430 -24.399  1.00  0.00    -0.304 OA
HETATM    2  O   UNL     1      12.034   5.402 -23.254  1.00  0.00    -0.304 OA
HETATM    3  O   UNL     1       7.998   4.463 -25.527  1.00  0.00    -0.304 OA
HETATM    4  O   UNL     1      10.653   7.902 -21.824  1.00  0.00    -0.270 OA
HETATM    5  O   UNL     1      10.322   8.345 -25.865  1.00  0.00    -0.263 OA
HETATM    6  O   UNL     1       8.138   7.257 -23.216  1.00  0.00    -0.270 OA
HETATM    7  O   UNL     1       9.955   2.093 -24.496  1.00  0.00    -0.270 OA
HETATM    8  O   UNL     1      14.000   4.240 -22.996  1.00  0.00    -0.263 OA
HETATM    9  O   UNL     1       7.269   3.134 -23.794  1.00  0.00    -0.263 OA
HETATM   10  N   UNL     1      12.051   8.396 -23.609  1.00  0.00    -0.340 N 
HETATM   11  N   UNL     1       6.605   6.575 -24.808  1.00  0.00    -0.340 N 
HETATM   12  N   UNL     1      11.158   3.913 -25.304  1.00  0.00    -0.340 N 
HETATM   13  C   UNL     1      11.226   9.568 -23.965  1.00  0.00     0.190 C 
HETATM   14  C   UNL     1       6.329   5.341 -24.040  1.00  0.00     0.190 C 
HETATM   15  C   UNL     1      12.409   3.480 -24.650  1.00  0.00     0.190 C 
HETATM   16  C   UNL     1      12.416   6.335 -22.224  1.00  0.00     0.227 C 
HETATM   17  C   UNL     1       7.747   8.814 -24.990  1.00  0.00     0.227 C 
HETATM   18  C   UNL     1       8.834   3.456 -26.125  1.00  0.00     0.227 C 
HETATM   19  C   UNL     1      11.629   7.607 -22.524  1.00  0.00     0.250 C 
HETATM   20  C   UNL     1      10.130   9.042 -24.877  1.00  0.00     0.283 C 
HETATM   21  C   UNL     1       7.521   7.486 -24.262  1.00  0.00     0.250 C 
HETATM   22  C   UNL     1      10.022   3.089 -25.224  1.00  0.00     0.250 C 
HETATM   23  C   UNL     1      12.920   4.412 -23.554  1.00  0.00     0.283 C 
HETATM   24  C   UNL     1       7.257   4.189 -24.419  1.00  0.00     0.283 C 
HETATM   25  C   UNL     1      13.231   8.114 -24.433  1.00  0.00     0.153 C 
HETATM   26  C   UNL     1       5.933   6.743 -26.098  1.00  0.00     0.153 C 
HETATM   27  C   UNL     1      11.217   5.100 -26.159  1.00  0.00     0.153 C 
ENDROOT
BRANCH  17  28
HETATM   28  C   UNL     1       6.579   9.761 -24.754  1.00  0.00     0.016 C 
HETATM   29  C   UNL     1       6.715  10.457 -23.401  1.00  0.00     0.012 C 
HETATM   30  C   UNL     1       6.484  10.791 -25.879  1.00  0.00     0.012 C 
ENDBRANCH  17  28
BRANCH  13  31
HETATM   31  C   UNL     1      11.960  10.723 -24.637  1.00  0.00     0.014 C 
HETATM   32  C   UNL     1      11.028  11.426 -25.626  1.00  0.00     0.012 C 
BRANCH  31  33
HETATM   33  C   UNL     1      12.513  11.685 -23.571  1.00  0.00     0.002 C 
HETATM   34  C   UNL     1      11.908  11.482 -22.190  1.00  0.00     0.005 C 
ENDBRANCH  31  33
ENDBRANCH  13  31
BRANCH  14  35
HETATM   35  C   UNL     1       4.874   4.879 -24.121  1.00  0.00     0.010 C 
HETATM   36  C   UNL     1       4.680   3.572 -23.355  1.00  0.00     0.012 C 
HETATM   37  C   UNL     1       3.934   5.958 -23.585  1.00  0.00     0.012 C 
ENDBRANCH  14  35
BRANCH  16  38
HETATM   38  C   UNL     1      12.040   5.746 -20.866  1.00  0.00     0.016 C 
HETATM   39  C   UNL     1      13.278   5.590 -19.985  1.00  0.00     0.012 C 
HETATM   40  C   UNL     1      11.333   4.403 -21.039  1.00  0.00     0.012 C 
ENDBRANCH  16  38
BRANCH  18  41
HETATM   41  C   UNL     1       8.027   2.235 -26.565  1.00  0.00     0.016 C 
HETATM   42  C   UNL     1       8.899   1.279 -27.375  1.00  0.00     0.012 C 
HETATM   43  C   UNL     1       6.805   2.664 -27.375  1.00  0.00     0.012 C 
ENDBRANCH  18  41
BRANCH  15  44
HETATM   44  C   UNL     1      13.509   3.208 -25.677  1.00  0.00     0.010 C 
HETATM   45  C   UNL     1      13.382   4.163 -26.861  1.00  0.00     0.012 C 
HETATM   46  C   UNL     1      13.454   1.757 -26.147  1.00  0.00     0.012 C 
ENDBRANCH  15  44
TORSDOF 7
ENDMDL
MODEL 6
REMARK VINA RESULT:    -4.122      1.772      6.446
REMARK INTER + INTRA:           0.135
REMARK INTER:                  -2.541
REMARK INTRA:                   2.676
REMARK UNBOUND:                 5.943
REMARK  7 active torsions:
REMARK  status: ('A' for Active; 'I' for Inactive)
REMARK    1  A    between atoms: C_13  and  C_14 
REMARK    2  A    between atoms: C_14  and  C_19 
REMARK    3  A    between atoms: C_15  and  C_20 
REMARK    4  A    between atoms: C_16  and  C_21 
REMARK    5  A    between atoms: C_17  and  C_23 
REMARK    6  A    between atoms: C_18  and  C_26 
REMARK    7  A    between atoms: C_22  and  C_28 
ROOT
HETATM    1  O   UNL     1       6.077   6.323 -24.561  1.00  0.00    -0.304 OA
HETATM    2  O   UNL     1      10.993   4.569 -24.785  1.00  0.00    -0.304 OA
HETATM    3  O   UNL     1      10.352   9.201 -24.091  1.00  0.00    -0.304 OA
HETATM    4  O   UNL     1       8.277   4.440 -26.461  1.00  0.00    -0.270 OA
HETATM    5  O   UNL     1       7.472   5.956 -22.762  1.00  0.00    -0.263 OA
HETATM    6  O   UNL     1       7.936   7.337 -26.055  1.00  0.00    -0.270 OA
HETATM    7  O   UNL     1      13.309   7.942 -24.516  1.00  0.00    -0.270 OA
HETATM    8  O   UNL     1      12.765   3.155 -24.416  1.00  0.00    -0.263 OA
HETATM    9  O   UNL     1      11.472   9.701 -26.038  1.00  0.00    -0.263 OA
HETATM   10  N   UNL     1       8.164   3.655 -24.280  1.00  0.00    -0.340 N 
HETATM   11  N   UNL     1       7.948   9.456 -25.126  1.00  0.00    -0.340 N 
HETATM   12  N   UNL     1      11.952   6.543 -23.245  1.00  0.00    -0.340 N 
HETATM   13  C   UNL     1       6.760   4.100 -24.165  1.00  0.00     0.190 C 
HETATM   14  C   UNL     1       9.065   9.857 -26.009  1.00  0.00     0.190 C 
HETATM   15  C   UNL     1      12.828   5.371 -23.453  1.00  0.00     0.190 C 
HETATM   16  C   UNL     1      10.317   3.566 -25.568  1.00  0.00     0.227 C 
HETATM   17  C   UNL     1       6.221   7.755 -24.440  1.00  0.00     0.227 C 
HETATM   18  C   UNL     1      11.539   9.015 -23.299  1.00  0.00     0.227 C 
HETATM   19  C   UNL     1       8.835   3.924 -25.486  1.00  0.00     0.250 C 
HETATM   20  C   UNL     1       6.821   5.550 -23.715  1.00  0.00     0.283 C 
HETATM   21  C   UNL     1       7.441   8.157 -25.273  1.00  0.00     0.250 C 
HETATM   22  C   UNL     1      12.348   7.792 -23.755  1.00  0.00     0.250 C 
HETATM   23  C   UNL     1      12.201   4.233 -24.254  1.00  0.00     0.283 C 
HETATM   24  C   UNL     1      10.434   9.566 -25.398  1.00  0.00     0.283 C 
HETATM   25  C   UNL     1       8.772   2.998 -23.119  1.00  0.00     0.153 C 
HETATM   26  C   UNL     1       7.474  10.427 -24.137  1.00  0.00     0.153 C 
HETATM   27  C   UNL     1      10.800   6.378 -22.358  1.00  0.00     0.153 C 
ENDROOT
BRANCH  17  28
HETATM   28  C   UNL     1       4.953   8.375 -25.010  1.00  0.00     0.016 C 
HETATM   29  C   UNL     1       4.900   8.197 -26.526  1.00  0.00     0.012 C 
HETATM   30  C   UNL     1       3.713   7.765 -24.356  1.00  0.00     0.012 C 
ENDBRANCH  17  28
BRANCH  13  31
HETATM   31  C   UNL     1       5.878   3.292 -23.219  1.00  0.00     0.014 C 
HETATM   32  C   UNL     1       4.529   3.990 -23.043  1.00  0.00     0.012 C 
BRANCH  31  33
HETATM   33  C   UNL     1       5.727   1.853 -23.742  1.00  0.00     0.002 C 
HETATM   34  C   UNL     1       5.473   1.770 -25.241  1.00  0.00     0.005 C 
ENDBRANCH  31  33
ENDBRANCH  13  31
BRANCH  14  35
HETATM   35  C   UNL     1       9.001  11.316 -26.458  1.00  0.00     0.010 C 
HETATM   36  C   UNL     1      10.250  11.692 -27.252  1.00  0.00     0.012 C 
HETATM   37  C   UNL     1       7.743  11.572 -27.288  1.00  0.00     0.012 C 
ENDBRANCH  14  35
BRANCH  16  38
HETATM   38  C   UNL     1      10.835   3.633 -27.002  1.00  0.00     0.016 C 
HETATM   39  C   UNL     1      11.588   2.354 -27.364  1.00  0.00     0.012 C 
HETATM   40  C   UNL     1      11.732   4.855 -27.194  1.00  0.00     0.012 C 
ENDBRANCH  16  38
BRANCH  18  41
HETATM   41  C   UNL     1      12.381  10.288 -23.230  1.00  0.00     0.016 C 
HETATM   42  C   UNL     1      13.863   9.945 -23.097  1.00  0.00     0.012 C 
HETATM   43  C   UNL     1      11.928  11.170 -22.069  1.00  0.00     0.012 C 
ENDBRANCH  18  41
BRANCH  15  44
HETATM   44  C   UNL     1      13.384   4.851 -22.127  1.00  0.00     0.010 C 
HETATM   45  C   UNL     1      12.291   4.145 -21.329  1.00  0.00     0.012 C 
HETATM   46  C   UNL     1      13.991   5.993 -21.318  1.00  0.00     0.012 C 
ENDBRANCH  15  44
TORSDOF 7
ENDMDL
MODEL 7
REMARK VINA RESULT:    -3.963      3.663      7.926
REMARK INTER + INTRA:           0.358
REMARK INTER:                  -2.217
REMARK INTRA:                   2.574
REMARK UNBOUND:                 5.943
REMARK  7 active torsions:
REMARK  status: ('A' for Active; 'I' for Inactive)
REMARK    1  A    between atoms: C_13  and  C_14 
REMARK    2  A    between atoms: C_14  and  C_19 
REMARK    3  A    between atoms: C_15  and  C_20 
REMARK    4  A    between atoms: C_16  and  C_21 
REMARK    5  A    between atoms: C_17  and  C_23 
REMARK    6  A    between atoms: C_18  and  C_26 
REMARK    7  A    between atoms: C_22  and  C_28 
ROOT
HETATM    1  O   UNL     1       9.883   4.066 -20.610  1.00  0.00    -0.304 OA
HETATM    2  O   UNL     1       7.172   1.331 -24.141  1.00  0.00    -0.304 OA
HETATM    3  O   UNL     1      11.714   2.235 -25.090  1.00  0.00    -0.304 OA
HETATM    4  O   UNL     1       6.972   4.056 -22.486  1.00  0.00    -0.270 OA
HETATM    5  O   UNL     1       9.976   1.783 -20.924  1.00  0.00    -0.263 OA
HETATM    6  O   UNL     1       9.789   4.615 -23.141  1.00  0.00    -0.270 OA
HETATM    7  O   UNL     1       9.786   0.780 -27.252  1.00  0.00    -0.270 OA
HETATM    8  O   UNL     1       5.679  -0.221 -24.938  1.00  0.00    -0.263 OA
HETATM    9  O   UNL     1      11.139   3.404 -26.989  1.00  0.00    -0.263 OA
HETATM   10  N   UNL     1       7.170   2.116 -21.229  1.00  0.00    -0.340 N 
HETATM   11  N   UNL     1      12.045   4.369 -23.589  1.00  0.00    -0.340 N 
HETATM   12  N   UNL     1       9.340   0.067 -25.083  1.00  0.00    -0.340 N 
HETATM   13  C   UNL     1       7.915   2.841 -20.179  1.00  0.00     0.190 C 
HETATM   14  C   UNL     1      11.808   4.634 -25.025  1.00  0.00     0.190 C 
HETATM   15  C   UNL     1       8.024  -0.496 -25.452  1.00  0.00     0.190 C 
HETATM   16  C   UNL     1       6.111   2.070 -23.505  1.00  0.00     0.227 C 
HETATM   17  C   UNL     1      11.176   4.250 -21.227  1.00  0.00     0.227 C 
HETATM   18  C   UNL     1      11.610   0.935 -25.698  1.00  0.00     0.227 C 
HETATM   19  C   UNL     1       6.782   2.840 -22.370  1.00  0.00     0.250 C 
HETATM   20  C   UNL     1       9.373   2.799 -20.603  1.00  0.00     0.283 C 
HETATM   21  C   UNL     1      10.938   4.423 -22.729  1.00  0.00     0.250 C 
HETATM   22  C   UNL     1      10.163   0.599 -26.090  1.00  0.00     0.250 C 
HETATM   23  C   UNL     1       6.825   0.199 -24.812  1.00  0.00     0.283 C 
HETATM   24  C   UNL     1      11.498   3.365 -25.817  1.00  0.00     0.283 C 
HETATM   25  C   UNL     1       6.918   0.685 -21.027  1.00  0.00     0.153 C 
HETATM   26  C   UNL     1      13.408   4.033 -23.170  1.00  0.00     0.153 C 
HETATM   27  C   UNL     1       9.797  -0.126 -23.706  1.00  0.00     0.153 C 
ENDROOT
BRANCH  17  28
HETATM   28  C   UNL     1      11.774   5.516 -20.629  1.00  0.00     0.016 C 
HETATM   29  C   UNL     1      13.239   5.297 -20.256  1.00  0.00     0.012 C 
HETATM   30  C   UNL     1      11.637   6.688 -21.600  1.00  0.00     0.012 C 
ENDBRANCH  17  28
BRANCH  13  31
HETATM   31  C   UNL     1       7.763   2.303 -18.760  1.00  0.00     0.014 C 
HETATM   32  C   UNL     1       8.766   2.993 -17.834  1.00  0.00     0.012 C 
BRANCH  31  33
HETATM   33  C   UNL     1       6.311   2.479 -18.284  1.00  0.00     0.002 C 
HETATM   34  C   UNL     1       6.086   2.062 -16.837  1.00  0.00     0.005 C 
ENDBRANCH  31  33
ENDBRANCH  13  31
BRANCH  14  35
HETATM   35  C   UNL     1      12.942   5.401 -25.704  1.00  0.00     0.010 C 
HETATM   36  C   UNL     1      13.080   4.978 -27.165  1.00  0.00     0.012 C 
HETATM   37  C   UNL     1      12.711   6.908 -25.603  1.00  0.00     0.012 C 
ENDBRANCH  14  35
BRANCH  16  38
HETATM   38  C   UNL     1       5.486   3.010 -24.532  1.00  0.00     0.016 C 
HETATM   39  C   UNL     1       6.563   3.826 -25.243  1.00  0.00     0.012 C 
HETATM   40  C   UNL     1       4.467   3.934 -23.867  1.00  0.00     0.012 C 
ENDBRANCH  16  38
BRANCH  18  41
HETATM   41  C   UNL     1      12.590   0.770 -26.859  1.00  0.00     0.016 C 
HETATM   42  C   UNL     1      12.574  -0.666 -27.375  1.00  0.00     0.012 C 
HETATM   43  C   UNL     1      14.000   1.172 -26.432  1.00  0.00     0.012 C 
ENDBRANCH  18  41
BRANCH  15  44
HETATM   44  C   UNL     1       7.972  -2.002 -25.193  1.00  0.00     0.010 C 
HETATM   45  C   UNL     1       7.435  -2.736 -26.419  1.00  0.00     0.012 C 
HETATM   46  C   UNL     1       7.116  -2.304 -23.966  1.00  0.00     0.012 C 
ENDBRANCH  15  44
TORSDOF 7
ENDMDL
MODEL 8
REMARK VINA RESULT:    -3.686      5.244      8.336
REMARK INTER + INTRA:           0.749
REMARK INTER:                  -1.893
REMARK INTRA:                   2.642
REMARK UNBOUND:                 5.943
REMARK  7 active torsions:
REMARK  status: ('A' for Active; 'I' for Inactive)
REMARK    1  A    between atoms: C_13  and  C_14 
REMARK    2  A    between atoms: C_14  and  C_19 
REMARK    3  A    between atoms: C_15  and  C_20 
REMARK    4  A    between atoms: C_16  and  C_21 
REMARK    5  A    between atoms: C_17  and  C_23 
REMARK    6  A    between atoms: C_18  and  C_26 
REMARK    7  A    between atoms: C_22  and  C_28 
ROOT
HETATM    1  O   UNL     1       6.686   1.499 -25.528  1.00  0.00    -0.304 OA
HETATM    2  O   UNL     1      11.635   0.368 -24.294  1.00  0.00    -0.304 OA
HETATM    3  O   UNL     1       8.818  -3.216 -25.545  1.00  0.00    -0.304 OA
HETATM    4  O   UNL     1       9.119   1.934 -23.101  1.00  0.00    -0.270 OA
HETATM    5  O   UNL     1       8.390   1.055 -27.016  1.00  0.00    -0.263 OA
HETATM    6  O   UNL     1       7.402  -0.339 -23.847  1.00  0.00    -0.270 OA
HETATM    7  O   UNL     1      11.844  -3.722 -24.498  1.00  0.00    -0.270 OA
HETATM    8  O   UNL     1      13.917   0.619 -24.212  1.00  0.00    -0.263 OA
HETATM    9  O   UNL     1       9.100  -4.223 -23.494  1.00  0.00    -0.263 OA
HETATM   10  N   UNL     1       9.867   2.645 -25.180  1.00  0.00    -0.340 N 
HETATM   11  N   UNL     1       6.488  -2.146 -24.966  1.00  0.00    -0.340 N 
HETATM   12  N   UNL     1      11.702  -1.824 -25.836  1.00  0.00    -0.340 N 
HETATM   13  C   UNL     1       8.493   3.015 -25.577  1.00  0.00     0.190 C 
HETATM   14  C   UNL     1       7.030  -3.073 -23.950  1.00  0.00     0.190 C 
HETATM   15  C   UNL     1      13.000  -1.296 -25.365  1.00  0.00     0.190 C 
HETATM   16  C   UNL     1      11.444   1.583 -23.541  1.00  0.00     0.227 C 
HETATM   17  C   UNL     1       6.080   0.210 -25.764  1.00  0.00     0.227 C 
HETATM   18  C   UNL     1      10.056  -3.696 -26.100  1.00  0.00     0.227 C 
HETATM   19  C   UNL     1      10.045   2.067 -23.910  1.00  0.00     0.250 C 
HETATM   20  C   UNL     1       7.874   1.751 -26.152  1.00  0.00     0.283 C 
HETATM   21  C   UNL     1       6.717  -0.775 -24.779  1.00  0.00     0.250 C 
HETATM   22  C   UNL     1      11.276  -3.088 -25.393  1.00  0.00     0.250 C 
HETATM   23  C   UNL     1      12.918   0.006 -24.574  1.00  0.00     0.283 C 
HETATM   24  C   UNL     1       8.438  -3.560 -24.285  1.00  0.00     0.283 C 
HETATM   25  C   UNL     1      10.944   2.870 -26.150  1.00  0.00     0.153 C 
HETATM   26  C   UNL     1       5.782  -2.722 -26.113  1.00  0.00     0.153 C 
HETATM   27  C   UNL     1      11.008  -1.077 -26.886  1.00  0.00     0.153 C 
ENDROOT
BRANCH  17  28
HETATM   28  C   UNL     1       4.593   0.364 -25.484  1.00  0.00     0.016 C 
HETATM   29  C   UNL     1       4.320   1.654 -24.711  1.00  0.00     0.012 C 
HETATM   30  C   UNL     1       3.793   0.341 -26.786  1.00  0.00     0.012 C 
ENDBRANCH  17  28
BRANCH  13  31
HETATM   31  C   UNL     1       8.372   4.161 -26.575  1.00  0.00     0.014 C 
HETATM   32  C   UNL     1       7.076   4.019 -27.375  1.00  0.00     0.012 C 
BRANCH  31  33
HETATM   33  C   UNL     1       8.458   5.510 -25.838  1.00  0.00     0.002 C 
HETATM   34  C   UNL     1       7.157   5.924 -25.165  1.00  0.00     0.005 C 
ENDBRANCH  31  33
ENDBRANCH  13  31
BRANCH  14  35
HETATM   35  C   UNL     1       6.124  -4.272 -23.666  1.00  0.00     0.010 C 
HETATM   36  C   UNL     1       6.874  -5.582 -23.898  1.00  0.00     0.012 C 
HETATM   37  C   UNL     1       5.582  -4.213 -22.238  1.00  0.00     0.012 C 
ENDBRANCH  14  35
BRANCH  16  38
HETATM   38  C   UNL     1      11.556   1.259 -22.054  1.00  0.00     0.016 C 
HETATM   39  C   UNL     1      11.945   2.504 -21.259  1.00  0.00     0.012 C 
HETATM   40  C   UNL     1      12.566   0.138 -21.820  1.00  0.00     0.012 C 
ENDBRANCH  16  38
BRANCH  18  41
HETATM   41  C   UNL     1      10.102  -5.222 -26.150  1.00  0.00     0.016 C 
HETATM   42  C   UNL     1      11.508  -5.706 -26.499  1.00  0.00     0.012 C 
HETATM   43  C   UNL     1       9.086  -5.757 -27.157  1.00  0.00     0.012 C 
ENDBRANCH  18  41
BRANCH  15  44
HETATM   44  C   UNL     1      13.995  -1.161 -26.518  1.00  0.00     0.010 C 
HETATM   45  C   UNL     1      13.668   0.065 -27.366  1.00  0.00     0.012 C 
HETATM   46  C   UNL     1      13.996  -2.424 -27.374  1.00  0.00     0.012 C 
ENDBRANCH  15  44
TORSDOF 7
ENDMDL
MODEL 9
REMARK VINA RESULT:    -3.489      3.029      7.303
REMARK INTER + INTRA:           1.027
REMARK INTER:                  -0.766
REMARK INTRA:                   1.793
REMARK UNBOUND:                 5.943
REMARK  7 active torsions:
REMARK  status: ('A' for Active; 'I' for Inactive)
REMARK    1  A    between atoms: C_13  and  C_14 
REMARK    2  A    between atoms: C_14  and  C_19 
REMARK    3  A    between atoms: C_15  and  C_20 
REMARK    4  A    between atoms: C_16  and  C_21 
REMARK    5  A    between atoms: C_17  and  C_23 
REMARK    6  A    between atoms: C_18  and  C_26 
REMARK    7  A    between atoms: C_22  and  C_28 
ROOT
HETATM    1  O   UNL     1       9.491  -0.118 -25.598  1.00  0.00    -0.304 OA
HETATM    2  O   UNL     1       6.399   3.220 -23.031  1.00  0.00    -0.304 OA
HETATM    3  O   UNL     1      10.295   4.965 -25.062  1.00  0.00    -0.304 OA
HETATM    4  O   UNL     1       7.881   0.427 -22.580  1.00  0.00    -0.270 OA
HETATM    5  O   UNL     1       7.991   1.351 -26.551  1.00  0.00    -0.263 OA
HETATM    6  O   UNL     1      10.308   1.562 -23.802  1.00  0.00    -0.270 OA
HETATM    7  O   UNL     1       8.376   6.808 -23.210  1.00  0.00    -0.270 OA
HETATM    8  O   UNL     1       4.441   4.178 -22.307  1.00  0.00    -0.263 OA
HETATM    9  O   UNL     1      11.106   5.667 -23.025  1.00  0.00    -0.263 OA
HETATM   10  N   UNL     1       6.390   0.512 -24.357  1.00  0.00    -0.340 N 
HETATM   11  N   UNL     1      11.745   2.773 -25.152  1.00  0.00    -0.340 N 
HETATM   12  N   UNL     1       7.147   5.325 -24.514  1.00  0.00    -0.340 N 
HETATM   13  C   UNL     1       7.205  -0.455 -25.121  1.00  0.00     0.190 C 
HETATM   14  C   UNL     1      12.051   3.691 -24.034  1.00  0.00     0.190 C 
HETATM   15  C   UNL     1       5.930   5.484 -23.692  1.00  0.00     0.190 C 
HETATM   16  C   UNL     1       6.085   1.990 -22.351  1.00  0.00     0.227 C 
HETATM   17  C   UNL     1      10.615   0.690 -26.009  1.00  0.00     0.227 C 
HETATM   18  C   UNL     1       9.418   6.090 -25.251  1.00  0.00     0.227 C 
HETATM   19  C   UNL     1       6.865   0.909 -23.094  1.00  0.00     0.250 C 
HETATM   20  C   UNL     1       8.244   0.373 -25.860  1.00  0.00     0.283 C 
HETATM   21  C   UNL     1      10.868   1.709 -24.894  1.00  0.00     0.250 C 
HETATM   22  C   UNL     1       8.278   6.108 -24.222  1.00  0.00     0.250 C 
HETATM   23  C   UNL     1       5.489   4.230 -22.943  1.00  0.00     0.283 C 
HETATM   24  C   UNL     1      11.094   4.879 -23.964  1.00  0.00     0.283 C 
HETATM   25  C   UNL     1       5.164   1.018 -24.981  1.00  0.00     0.153 C 
HETATM   26  C   UNL     1      12.345   3.058 -26.457  1.00  0.00     0.153 C 
HETATM   27  C   UNL     1       7.052   4.486 -25.709  1.00  0.00     0.153 C 
ENDROOT
BRANCH  17  28
HETATM   28  C   UNL     1      11.803  -0.250 -26.157  1.00  0.00     0.016 C 
HETATM   29  C   UNL     1      11.991  -1.085 -24.892  1.00  0.00     0.012 C 
HETATM   30  C   UNL     1      11.624  -1.157 -27.375  1.00  0.00     0.012 C 
ENDBRANCH  17  28
BRANCH  13  31
HETATM   31  C   UNL     1       6.445  -1.342 -26.101  1.00  0.00     0.014 C 
HETATM   32  C   UNL     1       7.302  -1.598 -27.342  1.00  0.00     0.012 C 
BRANCH  31  33
HETATM   33  C   UNL     1       6.020  -2.648 -25.405  1.00  0.00     0.002 C 
HETATM   34  C   UNL     1       6.423  -2.719 -23.939  1.00  0.00     0.005 C 
ENDBRANCH  31  33
ENDBRANCH  13  31
BRANCH  14  35
HETATM   35  C   UNL     1      13.495   4.193 -24.029  1.00  0.00     0.010 C 
HETATM   36  C   UNL     1      13.615   5.502 -24.806  1.00  0.00     0.012 C 
HETATM   37  C   UNL     1      13.999   4.374 -22.597  1.00  0.00     0.012 C 
ENDBRANCH  14  35
BRANCH  16  38
HETATM   38  C   UNL     1       6.530   2.107 -20.895  1.00  0.00     0.016 C 
HETATM   39  C   UNL     1       5.370   2.564 -20.012  1.00  0.00     0.012 C 
HETATM   40  C   UNL     1       7.710   3.069 -20.769  1.00  0.00     0.012 C 
ENDBRANCH  16  38
BRANCH  18  41
HETATM   41  C   UNL     1      10.188   7.409 -25.301  1.00  0.00     0.016 C 
HETATM   42  C   UNL     1       9.225   8.594 -25.274  1.00  0.00     0.012 C 
HETATM   43  C   UNL     1      11.074   7.466 -26.544  1.00  0.00     0.012 C 
ENDBRANCH  18  41
BRANCH  15  44
HETATM   44  C   UNL     1       4.773   6.050 -24.516  1.00  0.00     0.010 C 
HETATM   45  C   UNL     1       5.157   7.397 -25.122  1.00  0.00     0.012 C 
HETATM   46  C   UNL     1       3.520   6.183 -23.656  1.00  0.00     0.012 C 
ENDBRANCH  15  44
TORSDOF 7
ENDMDL
MODEL 10
REMARK VINA RESULT:    -3.060      2.059      6.477
REMARK INTER + INTRA:           1.631
REMARK INTER:                  -1.796
REMARK INTRA:                   3.427
REMARK UNBOUND:                 5.943
REMARK  7 active torsions:
REMARK  status: ('A' for Active; 'I' for Inactive)
REMARK    1  A    between atoms: C_13  and  C_14 
REMARK    2  A    between atoms: C_14  and  C_19 
REMARK    3  A    between atoms: C_15  and  C_20 
REMARK    4  A    between atoms: C_16  and  C_21 
REMARK    5  A    between atoms: C_17  and  C_23 
REMARK    6  A    between atoms: C_18  and  C_26 
REMARK    7  A    between atoms: C_22  and  C_28 
ROOT
HETATM    1  O   UNL     1       7.725   8.985 -25.650  1.00  0.00    -0.304 OA
HETATM    2  O   UNL     1       8.109   3.830 -24.898  1.00  0.00    -0.304 OA
HETATM    3  O   UNL     1      11.798   6.505 -23.642  1.00  0.00    -0.304 OA
HETATM    4  O   UNL     1       7.381   5.912 -27.209  1.00  0.00    -0.270 OA
HETATM    5  O   UNL     1       7.476   7.883 -23.640  1.00  0.00    -0.263 OA
HETATM    6  O   UNL     1       9.719   7.527 -26.434  1.00  0.00    -0.270 OA
HETATM    7  O   UNL     1      11.922   3.268 -23.500  1.00  0.00    -0.270 OA
HETATM    8  O   UNL     1       7.438   1.708 -24.325  1.00  0.00    -0.263 OA
HETATM    9  O   UNL     1      13.168   5.407 -25.131  1.00  0.00    -0.263 OA
HETATM   10  N   UNL     1       6.085   6.031 -25.287  1.00  0.00    -0.340 N 
HETATM   11  N   UNL     1      11.368   8.579 -25.200  1.00  0.00    -0.340 N 
HETATM   12  N   UNL     1       9.837   4.079 -22.863  1.00  0.00    -0.340 N 
HETATM   13  C   UNL     1       5.912   7.488 -25.462  1.00  0.00     0.190 C 
HETATM   14  C   UNL     1      12.377   7.615 -25.691  1.00  0.00     0.190 C 
HETATM   15  C   UNL     1       9.185   2.764 -23.030  1.00  0.00     0.190 C 
HETATM   16  C   UNL     1       7.159   3.871 -25.981  1.00  0.00     0.227 C 
HETATM   17  C   UNL     1       9.021   9.493 -25.264  1.00  0.00     0.227 C 
HETATM   18  C   UNL     1      11.887   5.501 -22.615  1.00  0.00     0.227 C 
HETATM   19  C   UNL     1       6.888   5.353 -26.221  1.00  0.00     0.250 C 
HETATM   20  C   UNL     1       7.109   8.131 -24.781  1.00  0.00     0.283 C 
HETATM   21  C   UNL     1      10.058   8.447 -25.681  1.00  0.00     0.250 C 
HETATM   22  C   UNL     1      11.227   4.182 -23.044  1.00  0.00     0.250 C 
HETATM   23  C   UNL     1       8.138   2.700 -24.139  1.00  0.00     0.283 C 
HETATM   24  C   UNL     1      12.487   6.374 -24.808  1.00  0.00     0.283 C 
HETATM   25  C   UNL     1       5.438   5.399 -24.133  1.00  0.00     0.153 C 
HETATM   26  C   UNL     1      11.797   9.579 -24.219  1.00  0.00     0.153 C 
HETATM   27  C   UNL     1       9.023   5.176 -22.338  1.00  0.00     0.153 C 
ENDROOT
BRANCH  17  28
HETATM   28  C   UNL     1       9.231  10.792 -26.029  1.00  0.00     0.016 C 
HETATM   29  C   UNL     1       8.288  10.870 -27.229  1.00  0.00     0.012 C 
HETATM   30  C   UNL     1       9.029  11.998 -25.111  1.00  0.00     0.012 C 
ENDBRANCH  17  28
BRANCH  13  31
HETATM   31  C   UNL     1       4.616   8.078 -24.917  1.00  0.00     0.014 C 
HETATM   32  C   UNL     1       4.931   9.243 -23.978  1.00  0.00     0.012 C 
BRANCH  31  33
HETATM   33  C   UNL     1       3.700   8.496 -26.081  1.00  0.00     0.002 C 
HETATM   34  C   UNL     1       4.455   8.945 -27.324  1.00  0.00     0.005 C 
ENDBRANCH  31  33
ENDBRANCH  13  31
BRANCH  14  35
HETATM   35  C   UNL     1      13.763   8.226 -25.897  1.00  0.00     0.010 C 
HETATM   36  C   UNL     1      13.941   8.687 -27.342  1.00  0.00     0.012 C 
HETATM   37  C   UNL     1      13.988   9.391 -24.933  1.00  0.00     0.012 C 
ENDBRANCH  14  35
BRANCH  16  38
HETATM   38  C   UNL     1       7.782   3.205 -27.204  1.00  0.00     0.016 C 
HETATM   39  C   UNL     1       7.252   1.782 -27.374  1.00  0.00     0.012 C 
HETATM   40  C   UNL     1       9.306   3.198 -27.096  1.00  0.00     0.012 C 
ENDBRANCH  16  38
BRANCH  18  41
HETATM   41  C   UNL     1      13.322   5.311 -22.127  1.00  0.00     0.016 C 
HETATM   42  C   UNL     1      13.348   4.489 -20.841  1.00  0.00     0.012 C 
HETATM   43  C   UNL     1      13.999   6.664 -21.914  1.00  0.00     0.012 C 
ENDBRANCH  18  41
BRANCH  15  44
HETATM   44  C   UNL     1       8.598   2.263 -21.710  1.00  0.00     0.010 C 
HETATM   45  C   UNL     1       7.145   2.706 -21.568  1.00  0.00     0.012 C 
HETATM   46  C   UNL     1       9.431   2.761 -20.532  1.00  0.00     0.012 C 
ENDBRANCH  15  44
TORSDOF 7
ENDMDL
MODEL 11
REMARK VINA RESULT:    -2.923      1.967      6.420
REMARK INTER + INTRA:           1.824
REMARK INTER:                  -2.241
REMARK INTRA:                   4.065
REMARK UNBOUND:                 5.943
REMARK  7 active torsions:
REMARK  status: ('A' for Active; 'I' for Inactive)
REMARK    1  A    between atoms: C_13  and  C_14 
REMARK    2  A    between atoms: C_14  and  C_19 
REMARK    3  A    between atoms: C_15  and  C_20 
REMARK    4  A    between atoms: C_16  and  C_21 
REMARK    5  A    between atoms: C_17  and  C_23 
REMARK    6  A    between atoms: C_18  and  C_26 
REMARK    7  A    between atoms: C_22  and  C_28 
ROOT
HETATM    1  O   UNL     1       6.712   3.910 -23.532  1.00  0.00    -0.304 OA
HETATM    2  O   UNL     1      11.714   4.683 -24.828  1.00  0.00    -0.304 OA
HETATM    3  O   UNL     1       8.786   8.383 -25.102  1.00  0.00    -0.304 OA
HETATM    4  O   UNL     1       9.293   2.712 -25.507  1.00  0.00    -0.270 OA
HETATM    5  O   UNL     1       8.317   4.914 -22.216  1.00  0.00    -0.263 OA
HETATM    6  O   UNL     1       7.507   5.044 -25.723  1.00  0.00    -0.270 OA
HETATM    7  O   UNL     1      11.864   8.578 -26.101  1.00  0.00    -0.270 OA
HETATM    8  O   UNL     1      13.999   4.494 -24.694  1.00  0.00    -0.263 OA
HETATM    9  O   UNL     1       9.180   8.596 -27.360  1.00  0.00    -0.263 OA
HETATM   10  N   UNL     1       9.921   2.820 -23.275  1.00  0.00    -0.340 N 
HETATM   11  N   UNL     1       6.507   7.102 -25.379  1.00  0.00    -0.340 N 
HETATM   12  N   UNL     1      11.662   7.283 -24.178  1.00  0.00    -0.340 N 
HETATM   13  C   UNL     1       8.530   2.573 -22.845  1.00  0.00     0.190 C 
HETATM   14  C   UNL     1       7.099   7.620 -26.631  1.00  0.00     0.190 C 
HETATM   15  C   UNL     1      12.992   6.665 -24.358  1.00  0.00     0.190 C 
HETATM   16  C   UNL     1      11.583   3.274 -25.101  1.00  0.00     0.227 C 
HETATM   17  C   UNL     1       6.078   5.178 -23.808  1.00  0.00     0.227 C 
HETATM   18  C   UNL     1       9.982   9.071 -24.693  1.00  0.00     0.227 C 
HETATM   19  C   UNL     1      10.169   2.908 -24.657  1.00  0.00     0.250 C 
HETATM   20  C   UNL     1       7.863   3.937 -22.797  1.00  0.00     0.283 C 
HETATM   21  C   UNL     1       6.763   5.763 -25.047  1.00  0.00     0.250 C 
HETATM   22  C   UNL     1      11.250   8.289 -25.069  1.00  0.00     0.250 C 
HETATM   23  C   UNL     1      12.973   5.163 -24.629  1.00  0.00     0.283 C 
HETATM   24  C   UNL     1       8.478   8.240 -26.420  1.00  0.00     0.283 C 
HETATM   25  C   UNL     1      10.940   2.993 -22.235  1.00  0.00     0.153 C 
HETATM   26  C   UNL     1       5.726   8.028 -24.556  1.00  0.00     0.153 C 
HETATM   27  C   UNL     1      10.914   6.941 -22.968  1.00  0.00     0.153 C 
ENDROOT
BRANCH  17  28
HETATM   28  C   UNL     1       4.612   4.885 -24.093  1.00  0.00     0.016 C 
HETATM   29  C   UNL     1       4.230   3.497 -23.580  1.00  0.00     0.012 C 
HETATM   30  C   UNL     1       3.717   5.953 -23.465  1.00  0.00     0.012 C 
ENDBRANCH  17  28
BRANCH  13  31
HETATM   31  C   UNL     1       8.361   1.857 -21.509  1.00  0.00     0.014 C 
HETATM   32  C   UNL     1       7.536   2.724 -20.556  1.00  0.00     0.012 C 
BRANCH  31  33
HETATM   33  C   UNL     1       7.730   0.471 -21.732  1.00  0.00     0.002 C 
HETATM   34  C   UNL     1       7.954  -0.086 -23.131  1.00  0.00     0.005 C 
ENDBRANCH  31  33
ENDBRANCH  13  31
BRANCH  14  35
HETATM   35  C   UNL     1       6.199   8.606 -27.375  1.00  0.00     0.010 C 
HETATM   36  C   UNL     1       4.727   8.293 -27.119  1.00  0.00     0.012 C 
HETATM   37  C   UNL     1       6.519  10.044 -26.965  1.00  0.00     0.012 C 
ENDBRANCH  14  35
BRANCH  16  38
HETATM   38  C   UNL     1      11.781   3.045 -26.598  1.00  0.00     0.016 C 
HETATM   39  C   UNL     1      13.172   2.478 -26.877  1.00  0.00     0.012 C 
HETATM   40  C   UNL     1      11.566   4.343 -27.374  1.00  0.00     0.012 C 
ENDBRANCH  16  38
BRANCH  18  41
HETATM   41  C   UNL     1      10.007  10.514 -25.194  1.00  0.00     0.016 C 
HETATM   42  C   UNL     1      11.442  10.968 -25.449  1.00  0.00     0.012 C 
HETATM   43  C   UNL     1       9.321  11.441 -24.193  1.00  0.00     0.012 C 
ENDBRANCH  18  41
BRANCH  15  44
HETATM   44  C   UNL     1      13.917   6.984 -23.183  1.00  0.00     0.010 C 
HETATM   45  C   UNL     1      13.544   6.144 -21.965  1.00  0.00     0.012 C 
HETATM   46  C   UNL     1      13.860   8.472 -22.848  1.00  0.00     0.012 C 
ENDBRANCH  15  44
TORSDOF 7
ENDMDL
MODEL 12
REMARK VINA RESULT:    -2.804      4.383      6.699
REMARK INTER + INTRA:           1.992
REMARK INTER:                  -3.765
REMARK INTRA:                   5.757
REMARK UNBOUND:                 5.943
REMARK  7 active torsions:
REMARK  status: ('A' for Active; 'I' for Inactive)
REMARK    1  A    between atoms: C_13  and  C_14 
REMARK    2  A    between atoms: C_14  and  C_19 
REMARK    3  A    between atoms: C_15  and  C_20 
REMARK    4  A    between atoms: C_16  and  C_21 
REMARK    5  A    between atoms: C_17  and  C_23 
REMARK    6  A    between atoms: C_18  and  C_26 
REMARK    7  A    between atoms: C_22  and  C_28 
ROOT
HETATM    1  O   UNL     1       6.556  -0.279 -23.468  1.00  0.00    -0.304 OA
HETATM    2  O   UNL     1      10.830   2.715 -23.716  1.00  0.00    -0.304 OA
HETATM    3  O   UNL     1      11.202  -1.756 -25.205  1.00  0.00    -0.304 OA
HETATM    4  O   UNL     1       8.585   1.835 -21.621  1.00  0.00    -0.270 OA
HETATM    5  O   UNL     1       7.405   0.723 -25.364  1.00  0.00    -0.263 OA
HETATM    6  O   UNL     1       8.880  -0.949 -22.536  1.00  0.00    -0.270 OA
HETATM    7  O   UNL     1      13.785   0.195 -25.033  1.00  0.00    -0.270 OA
HETATM    8  O   UNL     1      12.086   4.603 -24.084  1.00  0.00    -0.263 OA
HETATM    9  O   UNL     1      12.798  -2.211 -23.609  1.00  0.00    -0.263 OA
HETATM   10  N   UNL     1       7.823   2.873 -23.553  1.00  0.00    -0.340 N 
HETATM   11  N   UNL     1       9.209  -2.819 -23.857  1.00  0.00    -0.340 N 
HETATM   12  N   UNL     1      11.891   1.335 -25.756  1.00  0.00    -0.340 N 
HETATM   13  C   UNL     1       6.578   2.079 -23.520  1.00  0.00     0.190 C 
HETATM   14  C   UNL     1      10.551  -3.021 -23.270  1.00  0.00     0.190 C 
HETATM   15  C   UNL     1      12.479   2.660 -25.466  1.00  0.00     0.190 C 
HETATM   16  C   UNL     1      10.113   3.363 -22.648  1.00  0.00     0.227 C 
HETATM   17  C   UNL     1       7.015  -1.581 -23.895  1.00  0.00     0.227 C 
HETATM   18  C   UNL     1      12.112  -1.134 -26.129  1.00  0.00     0.227 C 
HETATM   19  C   UNL     1       8.781   2.625 -22.553  1.00  0.00     0.250 C 
HETATM   20  C   UNL     1       6.893   0.786 -24.254  1.00  0.00     0.283 C 
HETATM   21  C   UNL     1       8.444  -1.748 -23.372  1.00  0.00     0.250 C 
HETATM   22  C   UNL     1      12.677   0.184 -25.578  1.00  0.00     0.250 C 
HETATM   23  C   UNL     1      11.779   3.448 -24.362  1.00  0.00     0.283 C 
HETATM   24  C   UNL     1      11.647  -2.274 -24.028  1.00  0.00     0.283 C 
HETATM   25  C   UNL     1       7.992   3.838 -24.644  1.00  0.00     0.153 C 
HETATM   26  C   UNL     1       8.787  -3.725 -24.928  1.00  0.00     0.153 C 
HETATM   27  C   UNL     1      10.571   1.304 -26.389  1.00  0.00     0.153 C 
ENDROOT
BRANCH  17  28
HETATM   28  C   UNL     1       6.087  -2.605 -23.258  1.00  0.00     0.016 C 
HETATM   29  C   UNL     1       5.322  -3.380 -24.330  1.00  0.00     0.012 C 
HETATM   30  C   UNL     1       6.873  -3.564 -22.364  1.00  0.00     0.012 C 
ENDBRANCH  17  28
BRANCH  13  31
HETATM   31  C   UNL     1       5.347   2.742 -24.126  1.00  0.00     0.014 C 
HETATM   32  C   UNL     1       4.431   1.678 -24.734  1.00  0.00     0.012 C 
BRANCH  31  33
HETATM   33  C   UNL     1       4.629   3.591 -23.062  1.00  0.00     0.002 C 
HETATM   34  C   UNL     1       4.002   4.863 -23.613  1.00  0.00     0.005 C 
ENDBRANCH  31  33
ENDBRANCH  13  31
BRANCH  14  35
HETATM   35  C   UNL     1      10.941  -4.491 -23.117  1.00  0.00     0.010 C 
HETATM   36  C   UNL     1      11.443  -5.058 -24.443  1.00  0.00     0.012 C 
HETATM   37  C   UNL     1      12.002  -4.658 -22.029  1.00  0.00     0.012 C 
ENDBRANCH  14  35
BRANCH  16  38
HETATM   38  C   UNL     1      10.925   3.230 -21.362  1.00  0.00     0.016 C 
HETATM   39  C   UNL     1      11.555   4.568 -20.980  1.00  0.00     0.012 C 
HETATM   40  C   UNL     1      12.002   2.156 -21.513  1.00  0.00     0.012 C 
ENDBRANCH  16  38
BRANCH  18  41
HETATM   41  C   UNL     1      13.204  -2.098 -26.589  1.00  0.00     0.016 C 
HETATM   42  C   UNL     1      12.599  -3.259 -27.375  1.00  0.00     0.012 C 
HETATM   43  C   UNL     1      14.000  -2.616 -25.393  1.00  0.00     0.012 C 
ENDBRANCH  18  41
BRANCH  15  44
HETATM   44  C   UNL     1      12.597   3.505 -26.735  1.00  0.00     0.010 C 
HETATM   45  C   UNL     1      13.981   4.142 -26.826  1.00  0.00     0.012 C 
HETATM   46  C   UNL     1      11.508   4.573 -26.768  1.00  0.00     0.012 C 
ENDBRANCH  15  44
TORSDOF 7
ENDMDL
MODEL 13
REMARK VINA RESULT:    -2.762      4.436      8.622
REMARK INTER + INTRA:           2.050
REMARK INTER:                  -2.054
REMARK INTRA:                   4.104
REMARK UNBOUND:                 5.943
REMARK  7 active torsions:
REMARK  status: ('A' for Active; 'I' for Inactive)
REMARK    1  A    between atoms: C_13  and  C_14 
REMARK    2  A    between atoms: C_14  and  C_19 
REMARK    3  A    between atoms: C_15  and  C_20 
REMARK    4  A    between atoms: C_16  and  C_21 
REMARK    5  A    between atoms: C_17  and  C_23 
REMARK    6  A    between atoms: C_18  and  C_26 
REMARK    7  A    between atoms: C_22  and  C_28 
ROOT
HETATM    1  O   UNL     1       9.893   4.067 -21.559  1.00  0.00    -0.304 OA
HETATM    2  O   UNL     1       7.412   0.197 -24.041  1.00  0.00    -0.304 OA
HETATM    3  O   UNL     1      12.051   0.671 -24.813  1.00  0.00    -0.304 OA
HETATM    4  O   UNL     1       7.165   3.347 -23.568  1.00  0.00    -0.270 OA
HETATM    5  O   UNL     1       9.928   1.836 -20.976  1.00  0.00    -0.263 OA
HETATM    6  O   UNL     1      10.048   3.613 -24.106  1.00  0.00    -0.270 OA
HETATM    7  O   UNL     1      10.273  -1.496 -26.441  1.00  0.00    -0.270 OA
HETATM    8  O   UNL     1       5.939  -1.541 -24.335  1.00  0.00    -0.263 OA
HETATM    9  O   UNL     1      11.694   1.031 -27.058  1.00  0.00    -0.263 OA
HETATM   10  N   UNL     1       7.175   2.029 -21.657  1.00  0.00    -0.340 N 
HETATM   11  N   UNL     1      12.325   3.214 -24.205  1.00  0.00    -0.340 N 
HETATM   12  N   UNL     1       9.607  -1.332 -24.218  1.00  0.00    -0.340 N 
HETATM   13  C   UNL     1       7.849   3.098 -20.892  1.00  0.00     0.190 C 
HETATM   14  C   UNL     1      12.229   2.914 -25.650  1.00  0.00     0.190 C 
HETATM   15  C   UNL     1       8.309  -1.991 -24.474  1.00  0.00     0.190 C 
HETATM   16  C   UNL     1       6.326   1.123 -23.839  1.00  0.00     0.227 C 
HETATM   17  C   UNL     1      11.243   4.003 -22.070  1.00  0.00     0.227 C 
HETATM   18  C   UNL     1      11.954  -0.763 -24.891  1.00  0.00     0.227 C 
HETATM   19  C   UNL     1       6.920   2.266 -23.020  1.00  0.00     0.250 C 
HETATM   20  C   UNL     1       9.337   2.898 -21.124  1.00  0.00     0.283 C 
HETATM   21  C   UNL     1      11.148   3.591 -23.542  1.00  0.00     0.250 C 
HETATM   22  C   UNL     1      10.537  -1.222 -25.266  1.00  0.00     0.250 C 
HETATM   23  C   UNL     1       7.084  -1.105 -24.265  1.00  0.00     0.283 C 
HETATM   24  C   UNL     1      11.944   1.440 -25.930  1.00  0.00     0.283 C 
HETATM   25  C   UNL     1       6.853   0.782 -20.955  1.00  0.00     0.153 C 
HETATM   26  C   UNL     1      13.631   3.062 -23.559  1.00  0.00     0.153 C 
HETATM   27  C   UNL     1       9.930  -0.986 -22.833  1.00  0.00     0.153 C 
ENDROOT
BRANCH  17  28
HETATM   28  C   UNL     1      11.830   5.400 -21.939  1.00  0.00     0.016 C 
HETATM   29  C   UNL     1      11.005   6.409 -22.737  1.00  0.00     0.012 C 
HETATM   30  C   UNL     1      11.911   5.817 -20.471  1.00  0.00     0.012 C 
ENDBRANCH  17  28
BRANCH  13  31
HETATM   31  C   UNL     1       7.550   3.139 -19.397  1.00  0.00     0.014 C 
HETATM   32  C   UNL     1       6.043   3.022 -19.165  1.00  0.00     0.012 C 
BRANCH  31  33
HETATM   33  C   UNL     1       8.340   2.035 -18.673  1.00  0.00     0.002 C 
HETATM   34  C   UNL     1       8.063   1.963 -17.178  1.00  0.00     0.005 C 
ENDBRANCH  31  33
ENDBRANCH  13  31
BRANCH  14  35
HETATM   35  C   UNL     1      13.448   3.365 -26.454  1.00  0.00     0.010 C 
HETATM   36  C   UNL     1      13.941   2.242 -27.363  1.00  0.00     0.012 C 
HETATM   37  C   UNL     1      13.122   4.613 -27.275  1.00  0.00     0.012 C 
ENDBRANCH  14  35
BRANCH  16  38
HETATM   38  C   UNL     1       5.831   1.602 -25.201  1.00  0.00     0.016 C 
HETATM   39  C   UNL     1       4.457   1.013 -25.514  1.00  0.00     0.012 C 
HETATM   40  C   UNL     1       6.832   1.238 -26.296  1.00  0.00     0.012 C 
ENDBRANCH  16  38
BRANCH  18  41
HETATM   41  C   UNL     1      13.028  -1.357 -25.802  1.00  0.00     0.016 C 
HETATM   42  C   UNL     1      12.389  -2.173 -26.923  1.00  0.00     0.012 C 
HETATM   43  C   UNL     1      13.998  -2.218 -24.996  1.00  0.00     0.012 C 
ENDBRANCH  18  41
BRANCH  15  44
HETATM   44  C   UNL     1       8.177  -3.286 -23.672  1.00  0.00     0.010 C 
HETATM   45  C   UNL     1       7.744  -4.435 -24.579  1.00  0.00     0.012 C 
HETATM   46  C   UNL     1       7.189  -3.104 -22.523  1.00  0.00     0.012 C 
ENDBRANCH  15  44
TORSDOF 7
ENDMDL
MODEL 14
REMARK VINA RESULT:    -2.639      1.818      6.614
REMARK INTER + INTRA:           2.225
REMARK INTER:                  -1.183
REMARK INTRA:                   3.408
REMARK UNBOUND:                 5.943
REMARK  7 active torsions:
REMARK  status: ('A' for Active; 'I' for Inactive)
REMARK    1  A    between atoms: C_13  and  C_14 
REMARK    2  A    between atoms: C_14  and  C_19 
REMARK    3  A    between atoms: C_15  and  C_20 
REMARK    4  A    between atoms: C_16  and  C_21 
REMARK    5  A    between atoms: C_17  and  C_23 
REMARK    6  A    between atoms: C_18  and  C_26 
REMARK    7  A    between atoms: C_22  and  C_28 
ROOT
HETATM    1  O   UNL     1       8.467   4.133 -24.177  1.00  0.00    -0.304 OA
HETATM    2  O   UNL     1      11.698   8.193 -24.780  1.00  0.00    -0.304 OA
HETATM    3  O   UNL     1       7.097   9.122 -24.225  1.00  0.00    -0.304 OA
HETATM    4  O   UNL     1      10.972   5.421 -26.192  1.00  0.00    -0.270 OA
HETATM    5  O   UNL     1       9.241   5.514 -22.500  1.00  0.00    -0.263 OA
HETATM    6  O   UNL     1       8.113   6.056 -25.877  1.00  0.00    -0.270 OA
HETATM    7  O   UNL     1       9.236  11.471 -24.869  1.00  0.00    -0.270 OA
HETATM    8  O   UNL     1      13.599   9.456 -24.518  1.00  0.00    -0.263 OA
HETATM    9  O   UNL     1       6.999  10.140 -26.287  1.00  0.00    -0.263 OA
HETATM   10  N   UNL     1      11.658   5.287 -23.979  1.00  0.00    -0.340 N 
HETATM   11  N   UNL     1       6.099   6.831 -25.044  1.00  0.00    -0.340 N 
HETATM   12  N   UNL     1      10.117   9.878 -23.421  1.00  0.00    -0.340 N 
HETATM   13  C   UNL     1      10.787   4.114 -23.753  1.00  0.00     0.190 C 
HETATM   14  C   UNL     1       6.085   7.922 -26.042  1.00  0.00     0.190 C 
HETATM   15  C   UNL     1      11.509  10.312 -23.659  1.00  0.00     0.190 C 
HETATM   16  C   UNL     1      12.441   7.159 -25.455  1.00  0.00     0.227 C 
HETATM   17  C   UNL     1       7.154   4.733 -24.130  1.00  0.00     0.227 C 
HETATM   18  C   UNL     1       7.643  10.263 -23.539  1.00  0.00     0.227 C 
HETATM   19  C   UNL     1      11.629   5.883 -25.252  1.00  0.00     0.250 C 
HETATM   20  C   UNL     1       9.428   4.676 -23.372  1.00  0.00     0.283 C 
HETATM   21  C   UNL     1       7.171   5.927 -25.088  1.00  0.00     0.250 C 
HETATM   22  C   UNL     1       9.064  10.594 -24.017  1.00  0.00     0.250 C 
HETATM   23  C   UNL     1      12.396   9.280 -24.350  1.00  0.00     0.283 C 
HETATM   24  C   UNL     1       6.790   9.184 -25.549  1.00  0.00     0.283 C 
HETATM   25  C   UNL     1      12.462   5.770 -22.852  1.00  0.00     0.153 C 
HETATM   26  C   UNL     1       5.018   6.791 -24.057  1.00  0.00     0.153 C 
HETATM   27  C   UNL     1       9.896   8.828 -22.424  1.00  0.00     0.153 C 
ENDROOT
BRANCH  17  28
HETATM   28  C   UNL     1       6.169   3.675 -24.605  1.00  0.00     0.016 C 
HETATM   29  C   UNL     1       6.878   2.619 -25.451  1.00  0.00     0.012 C 
HETATM   30  C   UNL     1       5.461   3.024 -23.418  1.00  0.00     0.012 C 
ENDBRANCH  17  28
BRANCH  13  31
HETATM   31  C   UNL     1      11.262   3.123 -22.696  1.00  0.00     0.014 C 
HETATM   32  C   UNL     1      10.140   2.857 -21.692  1.00  0.00     0.012 C 
BRANCH  31  33
HETATM   33  C   UNL     1      11.759   1.833 -23.372  1.00  0.00     0.002 C 
HETATM   34  C   UNL     1      12.149   0.738 -22.390  1.00  0.00     0.005 C 
ENDBRANCH  31  33
ENDBRANCH  13  31
BRANCH  14  35
HETATM   35  C   UNL     1       4.685   8.278 -26.544  1.00  0.00     0.010 C 
HETATM   36  C   UNL     1       3.713   8.425 -25.375  1.00  0.00     0.012 C 
HETATM   37  C   UNL     1       4.720   9.560 -27.375  1.00  0.00     0.012 C 
ENDBRANCH  14  35
BRANCH  16  38
HETATM   38  C   UNL     1      12.558   7.525 -26.933  1.00  0.00     0.016 C 
HETATM   39  C   UNL     1      13.999   7.884 -27.288  1.00  0.00     0.012 C 
HETATM   40  C   UNL     1      11.618   8.679 -27.278  1.00  0.00     0.012 C 
ENDBRANCH  16  38
BRANCH  18  41
HETATM   41  C   UNL     1       6.704  11.467 -23.602  1.00  0.00     0.016 C 
HETATM   42  C   UNL     1       7.212  12.592 -22.704  1.00  0.00     0.012 C 
HETATM   43  C   UNL     1       5.286  11.063 -23.205  1.00  0.00     0.012 C 
ENDBRANCH  18  41
BRANCH  15  44
HETATM   44  C   UNL     1      12.165  10.806 -22.370  1.00  0.00     0.010 C 
HETATM   45  C   UNL     1      11.124  11.430 -21.445  1.00  0.00     0.012 C 
HETATM   46  C   UNL     1      13.275  11.806 -22.685  1.00  0.00     0.012 C 
ENDBRANCH  15  44
TORSDOF 7
ENDMDL
