MODEL 1
REMARK VINA RESULT:    -6.569      0.000      0.000
REMARK INTER + INTRA:          -8.764
REMARK INTER:                  -8.053
REMARK INTRA:                  -0.710
REMARK UNBOUND:                -0.467
REMARK  5 active torsions:
REMARK  status: ('A' for Active; 'I' for Inactive)
REMARK    1  A    between atoms: C_1  and  C_6 
REMARK    2  A    between atoms: C_1  and  O_14 
REMARK    3  A    between atoms: C_2  and  C_3 
REMARK    4  A    between atoms: C_2  and  C_11 
REMARK    5  A    between atoms: C_6  and  C_8 
ROOT
HETATM    1  C   UNL     1       7.283   3.021 -14.601  1.00  0.00    -0.044 A 
HETATM    2  C   UNL     1       7.133   4.079 -13.723  1.00  0.00     0.008 A 
HETATM    3  C   UNL     1       8.157   4.406 -12.855  1.00  0.00     0.007 A 
HETATM    4  C   UNL     1       9.329   3.674 -12.863  1.00  0.00    -0.058 A 
HETATM    5  C   UNL     1       9.481   2.621 -13.743  1.00  0.00     0.007 A 
HETATM    6  C   UNL     1       8.455   2.291 -14.609  1.00  0.00     0.008 A 
ENDROOT
BRANCH   1   7
HETATM    7  C   UNL     1       6.166   2.663 -15.547  1.00  0.00     0.112 C 
HETATM    8  C   UNL     1       5.465   1.397 -15.054  1.00  0.00     0.026 C 
BRANCH   7   9
HETATM    9  C   UNL     1       6.731   2.421 -16.922  1.00  0.00     0.148 C 
HETATM   10  O   UNL     1       7.239   3.330 -17.535  1.00  0.00    -0.649 OA
BRANCH   9  11
HETATM   11  O   UNL     1       6.670   1.196 -17.467  1.00  0.00    -0.776 OA
HETATM   12  H   UNL     1       5.904   0.630 -17.300  1.00  0.00     0.167 HD
ENDBRANCH   9  11
ENDBRANCH   7   9
ENDBRANCH   1   7
BRANCH   4  13
HETATM   13  C   UNL     1      10.446   4.031 -11.915  1.00  0.00     0.042 C 
BRANCH  13  14
HETATM   14  C   UNL     1      11.711   3.268 -12.307  1.00  0.00    -0.019 C 
HETATM   15  C   UNL     1      12.837   4.262 -12.600  1.00  0.00     0.010 C 
HETATM   16  C   UNL     1      12.129   2.349 -11.158  1.00  0.00     0.010 C 
ENDBRANCH  13  14
ENDBRANCH   4  13
TORSDOF 5
ENDMDL
MODEL 2
REMARK VINA RESULT:    -6.552      0.553      1.552
REMARK INTER + INTRA:          -8.742
REMARK INTER:                  -8.003
REMARK INTRA:                  -0.740
REMARK UNBOUND:                -0.467
REMARK  5 active torsions:
REMARK  status: ('A' for Active; 'I' for Inactive)
REMARK    1  A    between atoms: C_1  and  C_6 
REMARK    2  A    between atoms: C_1  and  O_14 
REMARK    3  A    between atoms: C_2  and  C_3 
REMARK    4  A    between atoms: C_2  and  C_11 
REMARK    5  A    between atoms: C_6  and  C_8 
ROOT
HETATM    1  C   UNL     1       7.236   3.092 -14.568  1.00  0.00    -0.044 A 
HETATM    2  C   UNL     1       8.393   2.335 -14.583  1.00  0.00     0.008 A 
HETATM    3  C   UNL     1       9.426   2.636 -13.716  1.00  0.00     0.007 A 
HETATM    4  C   UNL     1       9.302   3.693 -12.834  1.00  0.00    -0.058 A 
HETATM    5  C   UNL     1       8.143   4.445 -12.815  1.00  0.00     0.007 A 
HETATM    6  C   UNL     1       7.113   4.148 -13.686  1.00  0.00     0.008 A 
ENDROOT
BRANCH   1   7
HETATM    7  C   UNL     1       6.110   2.765 -15.514  1.00  0.00     0.112 C 
HETATM    8  C   UNL     1       5.886   1.253 -15.540  1.00  0.00     0.026 C 
BRANCH   7   9
HETATM    9  C   UNL     1       6.462   3.244 -16.898  1.00  0.00     0.148 C 
HETATM   10  O   UNL     1       7.012   2.498 -17.674  1.00  0.00    -0.649 OA
BRANCH   9  11
HETATM   11  O   UNL     1       6.167   4.500 -17.270  1.00  0.00    -0.776 OA
HETATM   12  H   UNL     1       5.812   4.672 -18.154  1.00  0.00     0.167 HD
ENDBRANCH   9  11
ENDBRANCH   7   9
ENDBRANCH   1   7
BRANCH   4  13
HETATM   13  C   UNL     1      10.429   4.020 -11.888  1.00  0.00     0.042 C 
BRANCH  13  14
HETATM   14  C   UNL     1      11.683   3.251 -12.304  1.00  0.00    -0.019 C 
HETATM   15  C   UNL     1      12.803   4.241 -12.634  1.00  0.00     0.010 C 
HETATM   16  C   UNL     1      12.128   2.342 -11.158  1.00  0.00     0.010 C 
ENDBRANCH  13  14
ENDBRANCH   4  13
TORSDOF 5
ENDMDL
MODEL 3
REMARK VINA RESULT:    -6.499      1.558      1.921
REMARK INTER + INTRA:          -8.675
REMARK INTER:                  -7.913
REMARK INTRA:                  -0.762
REMARK UNBOUND:                -0.467
REMARK  5 active torsions:
REMARK  status: ('A' for Active; 'I' for Inactive)
REMARK    1  A    between atoms: C_1  and  C_6 
REMARK    2  A    between atoms: C_1  and  O_14 
REMARK    3  A    between atoms: C_2  and  C_3 
REMARK    4  A    between atoms: C_2  and  C_11 
REMARK    5  A    between atoms: C_6  and  C_8 
ROOT
HETATM    1  C   UNL     1       7.608   2.961 -14.424  1.00  0.00    -0.044 A 
HETATM    2  C   UNL     1       7.441   4.014 -13.544  1.00  0.00     0.008 A 
HETATM    3  C   UNL     1       8.460   4.358 -12.677  1.00  0.00     0.007 A 
HETATM    4  C   UNL     1       9.647   3.650 -12.690  1.00  0.00    -0.058 A 
HETATM    5  C   UNL     1       9.816   2.601 -13.573  1.00  0.00     0.007 A 
HETATM    6  C   UNL     1       8.795   2.253 -14.436  1.00  0.00     0.008 A 
ENDROOT
BRANCH   1   7
HETATM    7  C   UNL     1       6.496   2.583 -15.368  1.00  0.00     0.112 C 
HETATM    8  C   UNL     1       6.013   3.829 -16.111  1.00  0.00     0.026 C 
BRANCH   7   9
HETATM    9  C   UNL     1       5.354   1.990 -14.586  1.00  0.00     0.148 C 
HETATM   10  O   UNL     1       5.359   0.815 -14.306  1.00  0.00    -0.649 OA
BRANCH   9  11
HETATM   11  O   UNL     1       4.328   2.766 -14.202  1.00  0.00    -0.776 OA
HETATM   12  H   UNL     1       4.171   3.613 -14.642  1.00  0.00     0.167 HD
ENDBRANCH   9  11
ENDBRANCH   7   9
ENDBRANCH   1   7
BRANCH   4  13
HETATM   13  C   UNL     1      10.759   4.026 -11.744  1.00  0.00     0.042 C 
BRANCH  13  14
HETATM   14  C   UNL     1      12.049   3.327 -12.171  1.00  0.00    -0.019 C 
HETATM   15  C   UNL     1      13.094   4.376 -12.558  1.00  0.00     0.010 C 
HETATM   16  C   UNL     1      12.581   2.483 -11.012  1.00  0.00     0.010 C 
ENDBRANCH  13  14
ENDBRANCH   4  13
TORSDOF 5
ENDMDL
MODEL 4
REMARK VINA RESULT:    -6.348      3.436      6.234
REMARK INTER + INTRA:          -8.485
REMARK INTER:                  -7.784
REMARK INTRA:                  -0.701
REMARK UNBOUND:                -0.467
REMARK  5 active torsions:
REMARK  status: ('A' for Active; 'I' for Inactive)
REMARK    1  A    between atoms: C_1  and  C_6 
REMARK    2  A    between atoms: C_1  and  O_14 
REMARK    3  A    between atoms: C_2  and  C_3 
REMARK    4  A    between atoms: C_2  and  C_11 
REMARK    5  A    between atoms: C_6  and  C_8 
ROOT
HETATM    1  C   UNL     1      11.010   3.246 -12.661  1.00  0.00    -0.044 A 
HETATM    2  C   UNL     1      10.394   2.504 -13.651  1.00  0.00     0.008 A 
HETATM    3  C   UNL     1       9.100   2.801 -14.033  1.00  0.00     0.007 A 
HETATM    4  C   UNL     1       8.421   3.839 -13.424  1.00  0.00    -0.058 A 
HETATM    5  C   UNL     1       9.038   4.584 -12.438  1.00  0.00     0.007 A 
HETATM    6  C   UNL     1      10.331   4.284 -12.053  1.00  0.00     0.008 A 
ENDROOT
BRANCH   1   7
HETATM    7  C   UNL     1      12.421   2.922 -12.243  1.00  0.00     0.112 C 
HETATM    8  C   UNL     1      13.062   2.001 -13.281  1.00  0.00     0.026 C 
BRANCH   7   9
HETATM    9  C   UNL     1      12.402   2.234 -10.903  1.00  0.00     0.148 C 
HETATM   10  O   UNL     1      11.511   1.465 -10.632  1.00  0.00    -0.649 OA
BRANCH   9  11
HETATM   11  O   UNL     1      13.376   2.475 -10.011  1.00  0.00    -0.776 OA
HETATM   12  H   UNL     1      13.239   3.129  -9.311  1.00  0.00     0.167 HD
ENDBRANCH   9  11
ENDBRANCH   7   9
ENDBRANCH   1   7
BRANCH   4  13
HETATM   13  C   UNL     1       7.009   4.162 -13.841  1.00  0.00     0.042 C 
BRANCH  13  14
HETATM   14  C   UNL     1       6.512   3.102 -14.824  1.00  0.00    -0.019 C 
HETATM   15  C   UNL     1       5.245   2.447 -14.271  1.00  0.00     0.010 C 
HETATM   16  C   UNL     1       6.201   3.759 -16.169  1.00  0.00     0.010 C 
ENDBRANCH  13  14
ENDBRANCH   4  13
TORSDOF 5
ENDMDL
MODEL 5
REMARK VINA RESULT:    -6.294      1.467      2.262
REMARK INTER + INTRA:          -8.417
REMARK INTER:                  -7.886
REMARK INTRA:                  -0.531
REMARK UNBOUND:                -0.467
REMARK  5 active torsions:
REMARK  status: ('A' for Active; 'I' for Inactive)
REMARK    1  A    between atoms: C_1  and  C_6 
REMARK    2  A    between atoms: C_1  and  O_14 
REMARK    3  A    between atoms: C_2  and  C_3 
REMARK    4  A    between atoms: C_2  and  C_11 
REMARK    5  A    between atoms: C_6  and  C_8 
ROOT
HETATM    1  C   UNL     1       7.123   2.593 -16.228  1.00  0.00    -0.044 A 
HETATM    2  C   UNL     1       6.281   3.112 -15.262  1.00  0.00     0.008 A 
HETATM    3  C   UNL     1       6.801   3.573 -14.068  1.00  0.00     0.007 A 
HETATM    4  C   UNL     1       8.163   3.515 -13.840  1.00  0.00    -0.058 A 
HETATM    5  C   UNL     1       9.005   3.002 -14.807  1.00  0.00     0.007 A 
HETATM    6  C   UNL     1       8.483   2.535 -15.999  1.00  0.00     0.008 A 
ENDROOT
BRANCH   1   7
HETATM    7  C   UNL     1       6.555   2.088 -17.529  1.00  0.00     0.112 C 
HETATM    8  C   UNL     1       7.648   2.095 -18.599  1.00  0.00     0.026 C 
BRANCH   7   9
HETATM    9  C   UNL     1       5.422   2.979 -17.963  1.00  0.00     0.148 C 
HETATM   10  O   UNL     1       4.293   2.549 -17.996  1.00  0.00    -0.649 OA
BRANCH   9  11
HETATM   11  O   UNL     1       5.665   4.252 -18.313  1.00  0.00    -0.776 OA
HETATM   12  H   UNL     1       6.487   4.681 -18.039  1.00  0.00     0.167 HD
ENDBRANCH   9  11
ENDBRANCH   7   9
ENDBRANCH   1   7
BRANCH   4  13
HETATM   13  C   UNL     1       8.730   4.019 -12.537  1.00  0.00     0.042 C 
BRANCH  13  14
HETATM   14  C   UNL     1      10.186   3.571 -12.408  1.00  0.00    -0.019 C 
HETATM   15  C   UNL     1      10.977   4.623 -11.627  1.00  0.00     0.010 C 
HETATM   16  C   UNL     1      10.246   2.235 -11.667  1.00  0.00     0.010 C 
ENDBRANCH  13  14
ENDBRANCH   4  13
TORSDOF 5
ENDMDL
MODEL 6
REMARK VINA RESULT:    -6.246      3.100      6.076
REMARK INTER + INTRA:          -8.355
REMARK INTER:                  -7.674
REMARK INTRA:                  -0.681
REMARK UNBOUND:                -0.467
REMARK  5 active torsions:
REMARK  status: ('A' for Active; 'I' for Inactive)
REMARK    1  A    between atoms: C_1  and  C_6 
REMARK    2  A    between atoms: C_1  and  O_14 
REMARK    3  A    between atoms: C_2  and  C_3 
REMARK    4  A    between atoms: C_2  and  C_11 
REMARK    5  A    between atoms: C_6  and  C_8 
ROOT
HETATM    1  C   UNL     1      10.186   3.606 -12.588  1.00  0.00    -0.044 A 
HETATM    2  C   UNL     1      10.158   2.895 -13.774  1.00  0.00     0.008 A 
HETATM    3  C   UNL     1       8.999   2.847 -14.523  1.00  0.00     0.007 A 
HETATM    4  C   UNL     1       7.866   3.508 -14.088  1.00  0.00    -0.058 A 
HETATM    5  C   UNL     1       7.895   4.223 -12.906  1.00  0.00     0.007 A 
HETATM    6  C   UNL     1       9.054   4.267 -12.154  1.00  0.00     0.008 A 
ENDROOT
BRANCH   1   7
HETATM    7  C   UNL     1      11.449   3.657 -11.770  1.00  0.00     0.112 C 
HETATM    8  C   UNL     1      12.607   4.135 -12.647  1.00  0.00     0.026 C 
BRANCH   7   9
HETATM    9  C   UNL     1      11.758   2.283 -11.235  1.00  0.00     0.148 C 
HETATM   10  O   UNL     1      12.880   2.012 -10.877  1.00  0.00    -0.649 OA
BRANCH   9  11
HETATM   11  O   UNL     1      10.788   1.359 -11.158  1.00  0.00    -0.776 OA
HETATM   12  H   UNL     1      10.002   1.435 -11.717  1.00  0.00     0.167 HD
ENDBRANCH   9  11
ENDBRANCH   7   9
ENDBRANCH   1   7
BRANCH   4  13
HETATM   13  C   UNL     1       6.601   3.456 -14.906  1.00  0.00     0.042 C 
BRANCH  13  14
HETATM   14  C   UNL     1       6.054   2.028 -14.906  1.00  0.00    -0.019 C 
HETATM   15  C   UNL     1       4.795   1.965 -14.038  1.00  0.00     0.010 C 
HETATM   16  C   UNL     1       5.707   1.615 -16.337  1.00  0.00     0.010 C 
ENDBRANCH  13  14
ENDBRANCH   4  13
TORSDOF 5
ENDMDL
MODEL 7
REMARK VINA RESULT:    -5.987      3.097      5.952
REMARK INTER + INTRA:          -8.028
REMARK INTER:                  -7.741
REMARK INTRA:                  -0.288
REMARK UNBOUND:                -0.467
REMARK  5 active torsions:
REMARK  status: ('A' for Active; 'I' for Inactive)
REMARK    1  A    between atoms: C_1  and  C_6 
REMARK    2  A    between atoms: C_1  and  O_14 
REMARK    3  A    between atoms: C_2  and  C_3 
REMARK    4  A    between atoms: C_2  and  C_11 
REMARK    5  A    between atoms: C_6  and  C_8 
ROOT
HETATM    1  C   UNL     1      10.375   2.932 -13.114  1.00  0.00    -0.044 A 
HETATM    2  C   UNL     1       9.498   3.875 -12.611  1.00  0.00     0.008 A 
HETATM    3  C   UNL     1       8.214   3.960 -13.112  1.00  0.00     0.007 A 
HETATM    4  C   UNL     1       7.805   3.103 -14.116  1.00  0.00    -0.058 A 
HETATM    5  C   UNL     1       8.679   2.157 -14.615  1.00  0.00     0.007 A 
HETATM    6  C   UNL     1       9.966   2.075 -14.118  1.00  0.00     0.008 A 
ENDROOT
BRANCH   1   7
HETATM    7  C   UNL     1      11.777   2.839 -12.570  1.00  0.00     0.112 C 
HETATM    8  C   UNL     1      11.771   2.013 -11.283  1.00  0.00     0.026 C 
BRANCH   7   9
HETATM    9  C   UNL     1      12.294   4.223 -12.276  1.00  0.00     0.148 C 
HETATM   10  O   UNL     1      11.841   4.853 -11.350  1.00  0.00    -0.649 OA
BRANCH   9  11
HETATM   11  O   UNL     1      13.257   4.758 -13.044  1.00  0.00    -0.776 OA
HETATM   12  H   UNL     1      13.647   4.239 -13.761  1.00  0.00     0.167 HD
ENDBRANCH   9  11
ENDBRANCH   7   9
ENDBRANCH   1   7
BRANCH   4  13
HETATM   13  C   UNL     1       6.403   3.197 -14.662  1.00  0.00     0.042 C 
BRANCH  13  14
HETATM   14  C   UNL     1       5.829   1.791 -14.836  1.00  0.00    -0.019 C 
HETATM   15  C   UNL     1       4.592   1.631 -13.948  1.00  0.00     0.010 C 
HETATM   16  C   UNL     1       5.438   1.576 -16.298  1.00  0.00     0.010 C 
ENDBRANCH  13  14
ENDBRANCH   4  13
TORSDOF 5
ENDMDL
MODEL 8
REMARK VINA RESULT:    -5.976      1.352      2.277
REMARK INTER + INTRA:          -8.015
REMARK INTER:                  -7.408
REMARK INTRA:                  -0.607
REMARK UNBOUND:                -0.467
REMARK  5 active torsions:
REMARK  status: ('A' for Active; 'I' for Inactive)
REMARK    1  A    between atoms: C_1  and  C_6 
REMARK    2  A    between atoms: C_1  and  O_14 
REMARK    3  A    between atoms: C_2  and  C_3 
REMARK    4  A    between atoms: C_2  and  C_11 
REMARK    5  A    between atoms: C_6  and  C_8 
ROOT
HETATM    1  C   UNL     1       6.359   2.512 -14.598  1.00  0.00    -0.044 A 
HETATM    2  C   UNL     1       7.421   1.743 -15.036  1.00  0.00     0.008 A 
HETATM    3  C   UNL     1       8.716   2.118 -14.734  1.00  0.00     0.007 A 
HETATM    4  C   UNL     1       8.949   3.262 -13.996  1.00  0.00    -0.058 A 
HETATM    5  C   UNL     1       7.888   4.028 -13.554  1.00  0.00     0.007 A 
HETATM    6  C   UNL     1       6.593   3.656 -13.860  1.00  0.00     0.008 A 
ENDROOT
BRANCH   1   7
HETATM    7  C   UNL     1       4.946   2.105 -14.929  1.00  0.00     0.112 C 
HETATM    8  C   UNL     1       4.450   1.097 -13.891  1.00  0.00     0.026 C 
BRANCH   7   9
HETATM    9  C   UNL     1       4.912   1.475 -16.296  1.00  0.00     0.148 C 
HETATM   10  O   UNL     1       4.873   0.273 -16.407  1.00  0.00    -0.649 OA
BRANCH   9  11
HETATM   11  O   UNL     1       4.926   2.250 -17.393  1.00  0.00    -0.776 OA
HETATM   12  H   UNL     1       5.557   2.070 -18.104  1.00  0.00     0.167 HD
ENDBRANCH   9  11
ENDBRANCH   7   9
ENDBRANCH   1   7
BRANCH   4  13
HETATM   13  C   UNL     1      10.362   3.671 -13.666  1.00  0.00     0.042 C 
BRANCH  13  14
HETATM   14  C   UNL     1      10.592   3.543 -12.160  1.00  0.00    -0.019 C 
HETATM   15  C   UNL     1      10.724   2.065 -11.788  1.00  0.00     0.010 C 
HETATM   16  C   UNL     1      11.874   4.282 -11.775  1.00  0.00     0.010 C 
ENDBRANCH  13  14
ENDBRANCH   4  13
TORSDOF 5
ENDMDL
MODEL 9
REMARK VINA RESULT:    -5.963      2.816      5.965
REMARK INTER + INTRA:          -7.998
REMARK INTER:                  -7.209
REMARK INTRA:                  -0.789
REMARK UNBOUND:                -0.467
REMARK  5 active torsions:
REMARK  status: ('A' for Active; 'I' for Inactive)
REMARK    1  A    between atoms: C_1  and  C_6 
REMARK    2  A    between atoms: C_1  and  O_14 
REMARK    3  A    between atoms: C_2  and  C_3 
REMARK    4  A    between atoms: C_2  and  C_11 
REMARK    5  A    between atoms: C_6  and  C_8 
ROOT
HETATM    1  C   UNL     1      10.060   3.262 -13.876  1.00  0.00    -0.044 A 
HETATM    2  C   UNL     1       9.190   4.088 -14.563  1.00  0.00     0.008 A 
HETATM    3  C   UNL     1       8.337   3.557 -15.510  1.00  0.00     0.007 A 
HETATM    4  C   UNL     1       8.353   2.200 -15.772  1.00  0.00    -0.058 A 
HETATM    5  C   UNL     1       9.217   1.374 -15.081  1.00  0.00     0.007 A 
HETATM    6  C   UNL     1      10.075   1.906 -14.137  1.00  0.00     0.008 A 
ENDROOT
BRANCH   1   7
HETATM    7  C   UNL     1      10.992   3.840 -12.843  1.00  0.00     0.112 C 
HETATM    8  C   UNL     1      12.019   2.784 -12.433  1.00  0.00     0.026 C 
BRANCH   7   9
HETATM    9  C   UNL     1      10.201   4.267 -11.635  1.00  0.00     0.148 C 
HETATM   10  O   UNL     1       9.222   3.642 -11.302  1.00  0.00    -0.649 OA
BRANCH   9  11
HETATM   11  O   UNL     1      10.582   5.343 -10.928  1.00  0.00    -0.776 OA
HETATM   12  H   UNL     1      10.126   6.188 -11.049  1.00  0.00     0.167 HD
ENDBRANCH   9  11
ENDBRANCH   7   9
ENDBRANCH   1   7
BRANCH   4  13
HETATM   13  C   UNL     1       7.421   1.622 -16.806  1.00  0.00     0.042 C 
BRANCH  13  14
HETATM   14  C   UNL     1       5.994   2.096 -16.529  1.00  0.00    -0.019 C 
HETATM   15  C   UNL     1       5.276   2.354 -17.856  1.00  0.00     0.010 C 
HETATM   16  C   UNL     1       5.242   1.022 -15.743  1.00  0.00     0.010 C 
ENDBRANCH  13  14
ENDBRANCH   4  13
TORSDOF 5
ENDMDL
MODEL 10
REMARK VINA RESULT:    -5.776      1.368      2.280
REMARK INTER + INTRA:          -7.762
REMARK INTER:                  -7.042
REMARK INTRA:                  -0.720
REMARK UNBOUND:                -0.467
REMARK  5 active torsions:
REMARK  status: ('A' for Active; 'I' for Inactive)
REMARK    1  A    between atoms: C_1  and  C_6 
REMARK    2  A    between atoms: C_1  and  O_14 
REMARK    3  A    between atoms: C_2  and  C_3 
REMARK    4  A    between atoms: C_2  and  C_11 
REMARK    5  A    between atoms: C_6  and  C_8 
ROOT
HETATM    1  C   UNL     1       6.590   2.484 -15.579  1.00  0.00    -0.044 A 
HETATM    2  C   UNL     1       7.602   1.543 -15.564  1.00  0.00     0.008 A 
HETATM    3  C   UNL     1       8.807   1.835 -14.955  1.00  0.00     0.007 A 
HETATM    4  C   UNL     1       9.000   3.067 -14.361  1.00  0.00    -0.058 A 
HETATM    5  C   UNL     1       7.986   4.006 -14.370  1.00  0.00     0.007 A 
HETATM    6  C   UNL     1       6.783   3.716 -14.984  1.00  0.00     0.008 A 
ENDROOT
BRANCH   1   7
HETATM    7  C   UNL     1       5.276   2.167 -16.245  1.00  0.00     0.112 C 
HETATM    8  C   UNL     1       4.838   0.752 -15.864  1.00  0.00     0.026 C 
BRANCH   7   9
HETATM    9  C   UNL     1       5.436   2.258 -17.740  1.00  0.00     0.148 C 
HETATM   10  O   UNL     1       5.988   1.369 -18.343  1.00  0.00    -0.649 OA
BRANCH   9  11
HETATM   11  O   UNL     1       4.965   3.327 -18.402  1.00  0.00    -0.776 OA
HETATM   12  H   UNL     1       5.360   3.585 -19.247  1.00  0.00     0.167 HD
ENDBRANCH   9  11
ENDBRANCH   7   9
ENDBRANCH   1   7
BRANCH   4  13
HETATM   13  C   UNL     1      10.315   3.385 -13.696  1.00  0.00     0.042 C 
BRANCH  13  14
HETATM   14  C   UNL     1      10.148   3.317 -12.178  1.00  0.00    -0.019 C 
HETATM   15  C   UNL     1      10.739   2.004 -11.658  1.00  0.00     0.010 C 
HETATM   16  C   UNL     1      10.877   4.495 -11.530  1.00  0.00     0.010 C 
ENDBRANCH  13  14
ENDBRANCH   4  13
TORSDOF 5
ENDMDL
MODEL 11
REMARK VINA RESULT:    -5.217      2.904      6.582
REMARK INTER + INTRA:          -7.055
REMARK INTER:                  -6.352
REMARK INTRA:                  -0.703
REMARK UNBOUND:                -0.467
REMARK  5 active torsions:
REMARK  status: ('A' for Active; 'I' for Inactive)
REMARK    1  A    between atoms: C_1  and  C_6 
REMARK    2  A    between atoms: C_1  and  O_14 
REMARK    3  A    between atoms: C_2  and  C_3 
REMARK    4  A    between atoms: C_2  and  C_11 
REMARK    5  A    between atoms: C_6  and  C_8 
ROOT
HETATM    1  C   UNL     1       7.425   3.078 -15.956  1.00  0.00    -0.044 A 
HETATM    2  C   UNL     1       8.150   2.220 -16.763  1.00  0.00     0.008 A 
HETATM    3  C   UNL     1       7.720   1.953 -18.048  1.00  0.00     0.007 A 
HETATM    4  C   UNL     1       6.565   2.541 -18.527  1.00  0.00    -0.058 A 
HETATM    5  C   UNL     1       5.844   3.402 -17.722  1.00  0.00     0.007 A 
HETATM    6  C   UNL     1       6.271   3.666 -16.435  1.00  0.00     0.008 A 
ENDROOT
BRANCH   1   7
HETATM    7  C   UNL     1       7.893   3.369 -14.553  1.00  0.00     0.112 C 
HETATM    8  C   UNL     1       6.794   4.112 -13.793  1.00  0.00     0.026 C 
BRANCH   7   9
HETATM    9  C   UNL     1       9.133   4.221 -14.604  1.00  0.00     0.148 C 
HETATM   10  O   UNL     1       9.888   4.246 -13.661  1.00  0.00    -0.649 OA
BRANCH   9  11
HETATM   11  O   UNL     1       9.400   4.955 -15.696  1.00  0.00    -0.776 OA
HETATM   12  H   UNL     1      10.191   5.511 -15.724  1.00  0.00     0.167 HD
ENDBRANCH   9  11
ENDBRANCH   7   9
ENDBRANCH   1   7
BRANCH   4  13
HETATM   13  C   UNL     1       6.096   2.249 -19.929  1.00  0.00     0.042 C 
BRANCH  13  14
HETATM   14  C   UNL     1       7.305   2.151 -20.860  1.00  0.00    -0.019 C 
HETATM   15  C   UNL     1       7.219   0.857 -21.674  1.00  0.00     0.010 C 
HETATM   16  C   UNL     1       7.316   3.350 -21.810  1.00  0.00     0.010 C 
ENDBRANCH  13  14
ENDBRANCH   4  13
TORSDOF 5
ENDMDL
MODEL 12
REMARK VINA RESULT:    -5.187      3.864      5.773
REMARK INTER + INTRA:          -7.019
REMARK INTER:                  -6.153
REMARK INTRA:                  -0.866
REMARK UNBOUND:                -0.467
REMARK  5 active torsions:
REMARK  status: ('A' for Active; 'I' for Inactive)
REMARK    1  A    between atoms: C_1  and  C_6 
REMARK    2  A    between atoms: C_1  and  O_14 
REMARK    3  A    between atoms: C_2  and  C_3 
REMARK    4  A    between atoms: C_2  and  C_11 
REMARK    5  A    between atoms: C_6  and  C_8 
ROOT
HETATM    1  C   UNL     1       6.904   2.516 -19.638  1.00  0.00    -0.044 A 
HETATM    2  C   UNL     1       5.668   2.430 -19.023  1.00  0.00     0.008 A 
HETATM    3  C   UNL     1       5.588   2.173 -17.668  1.00  0.00     0.007 A 
HETATM    4  C   UNL     1       6.743   2.002 -16.928  1.00  0.00    -0.058 A 
HETATM    5  C   UNL     1       7.977   2.093 -17.541  1.00  0.00     0.007 A 
HETATM    6  C   UNL     1       8.057   2.345 -18.898  1.00  0.00     0.008 A 
ENDROOT
BRANCH   1   7
HETATM    7  C   UNL     1       6.992   2.794 -21.116  1.00  0.00     0.112 C 
HETATM    8  C   UNL     1       5.618   3.217 -21.639  1.00  0.00     0.026 C 
BRANCH   7   9
HETATM    9  C   UNL     1       7.441   1.549 -21.836  1.00  0.00     0.148 C 
HETATM   10  O   UNL     1       8.528   1.516 -22.363  1.00  0.00    -0.649 OA
BRANCH   9  11
HETATM   11  O   UNL     1       6.635   0.478 -21.892  1.00  0.00    -0.776 OA
HETATM   12  H   UNL     1       6.580  -0.127 -21.139  1.00  0.00     0.167 HD
ENDBRANCH   9  11
ENDBRANCH   7   9
ENDBRANCH   1   7
BRANCH   4  13
HETATM   13  C   UNL     1       6.655   1.722 -15.449  1.00  0.00     0.042 C 
BRANCH  13  14
HETATM   14  C   UNL     1       5.628   2.659 -14.813  1.00  0.00    -0.019 C 
HETATM   15  C   UNL     1       4.704   1.856 -13.895  1.00  0.00     0.010 C 
HETATM   16  C   UNL     1       6.351   3.731 -13.997  1.00  0.00     0.010 C 
ENDBRANCH  13  14
ENDBRANCH   4  13
TORSDOF 5
ENDMDL
MODEL 13
REMARK VINA RESULT:    -4.906      3.331      6.247
REMARK INTER + INTRA:          -6.663
REMARK INTER:                  -5.854
REMARK INTRA:                  -0.808
REMARK UNBOUND:                -0.467
REMARK  5 active torsions:
REMARK  status: ('A' for Active; 'I' for Inactive)
REMARK    1  A    between atoms: C_1  and  C_6 
REMARK    2  A    between atoms: C_1  and  O_14 
REMARK    3  A    between atoms: C_2  and  C_3 
REMARK    4  A    between atoms: C_2  and  C_11 
REMARK    5  A    between atoms: C_6  and  C_8 
ROOT
HETATM    1  C   UNL     1       6.371   3.007 -16.342  1.00  0.00    -0.044 A 
HETATM    2  C   UNL     1       7.691   2.638 -16.529  1.00  0.00     0.008 A 
HETATM    3  C   UNL     1       8.140   2.298 -17.790  1.00  0.00     0.007 A 
HETATM    4  C   UNL     1       7.271   2.326 -18.864  1.00  0.00    -0.058 A 
HETATM    5  C   UNL     1       5.955   2.700 -18.679  1.00  0.00     0.007 A 
HETATM    6  C   UNL     1       5.504   3.035 -17.417  1.00  0.00     0.008 A 
ENDROOT
BRANCH   1   7
HETATM    7  C   UNL     1       5.880   3.377 -14.967  1.00  0.00     0.112 C 
HETATM    8  C   UNL     1       7.072   3.721 -14.074  1.00  0.00     0.026 C 
BRANCH   7   9
HETATM    9  C   UNL     1       5.127   2.215 -14.373  1.00  0.00     0.148 C 
HETATM   10  O   UNL     1       5.650   1.128 -14.303  1.00  0.00    -0.649 OA
BRANCH   9  11
HETATM   11  O   UNL     1       3.874   2.386 -13.923  1.00  0.00    -0.776 OA
HETATM   12  H   UNL     1       3.700   2.405 -12.972  1.00  0.00     0.167 HD
ENDBRANCH   9  11
ENDBRANCH   7   9
ENDBRANCH   1   7
BRANCH   4  13
HETATM   13  C   UNL     1       7.763   1.954 -20.240  1.00  0.00     0.042 C 
BRANCH  13  14
HETATM   14  C   UNL     1       8.535   3.129 -20.840  1.00  0.00    -0.019 C 
HETATM   15  C   UNL     1       9.966   2.690 -21.160  1.00  0.00     0.010 C 
HETATM   16  C   UNL     1       7.845   3.592 -22.124  1.00  0.00     0.010 C 
ENDBRANCH  13  14
ENDBRANCH   4  13
TORSDOF 5
ENDMDL
MODEL 14
REMARK VINA RESULT:    -4.871      3.028      5.302
REMARK INTER + INTRA:          -6.619
REMARK INTER:                  -5.774
REMARK INTRA:                  -0.845
REMARK UNBOUND:                -0.467
REMARK  5 active torsions:
REMARK  status: ('A' for Active; 'I' for Inactive)
REMARK    1  A    between atoms: C_1  and  C_6 
REMARK    2  A    between atoms: C_1  and  O_14 
REMARK    3  A    between atoms: C_2  and  C_3 
REMARK    4  A    between atoms: C_2  and  C_11 
REMARK    5  A    between atoms: C_6  and  C_8 
ROOT
HETATM    1  C   UNL     1       6.934   2.623 -19.648  1.00  0.00    -0.044 A 
HETATM    2  C   UNL     1       8.117   2.384 -18.974  1.00  0.00     0.008 A 
HETATM    3  C   UNL     1       8.113   2.248 -17.600  1.00  0.00     0.007 A 
HETATM    4  C   UNL     1       6.927   2.353 -16.898  1.00  0.00    -0.058 A 
HETATM    5  C   UNL     1       5.744   2.587 -17.572  1.00  0.00     0.007 A 
HETATM    6  C   UNL     1       5.748   2.727 -18.947  1.00  0.00     0.008 A 
ENDROOT
BRANCH   1   7
HETATM    7  C   UNL     1       6.938   2.773 -21.148  1.00  0.00     0.112 C 
HETATM    8  C   UNL     1       5.521   3.083 -21.634  1.00  0.00     0.026 C 
BRANCH   7   9
HETATM    9  C   UNL     1       7.416   1.492 -21.779  1.00  0.00     0.148 C 
HETATM   10  O   UNL     1       8.501   1.447 -22.308  1.00  0.00    -0.649 OA
BRANCH   9  11
HETATM   11  O   UNL     1       6.636   0.399 -21.756  1.00  0.00    -0.776 OA
HETATM   12  H   UNL     1       6.967  -0.439 -22.106  1.00  0.00     0.167 HD
ENDBRANCH   9  11
ENDBRANCH   7   9
ENDBRANCH   1   7
BRANCH   4  13
HETATM   13  C   UNL     1       6.923   2.205 -15.398  1.00  0.00     0.042 C 
BRANCH  13  14
HETATM   14  C   UNL     1       7.676   3.377 -14.769  1.00  0.00    -0.019 C 
HETATM   15  C   UNL     1       6.696   4.249 -13.980  1.00  0.00     0.010 C 
HETATM   16  C   UNL     1       8.755   2.844 -13.825  1.00  0.00     0.010 C 
ENDBRANCH  13  14
ENDBRANCH   4  13
TORSDOF 5
ENDMDL
MODEL 15
REMARK VINA RESULT:    -4.810      1.932      3.576
REMARK INTER + INTRA:          -6.542
REMARK INTER:                  -5.802
REMARK INTRA:                  -0.740
REMARK UNBOUND:                -0.467
REMARK  5 active torsions:
REMARK  status: ('A' for Active; 'I' for Inactive)
REMARK    1  A    between atoms: C_1  and  C_6 
REMARK    2  A    between atoms: C_1  and  O_14 
REMARK    3  A    between atoms: C_2  and  C_3 
REMARK    4  A    between atoms: C_2  and  C_11 
REMARK    5  A    between atoms: C_6  and  C_8 
ROOT
HETATM    1  C   UNL     1       6.654   2.050 -17.703  1.00  0.00    -0.044 A 
HETATM    2  C   UNL     1       5.944   1.764 -16.552  1.00  0.00     0.008 A 
HETATM    3  C   UNL     1       6.569   1.827 -15.321  1.00  0.00     0.007 A 
HETATM    4  C   UNL     1       7.903   2.177 -15.241  1.00  0.00    -0.058 A 
HETATM    5  C   UNL     1       8.612   2.468 -16.391  1.00  0.00     0.007 A 
HETATM    6  C   UNL     1       7.988   2.400 -17.622  1.00  0.00     0.008 A 
ENDROOT
BRANCH   1   7
HETATM    7  C   UNL     1       5.974   1.979 -19.046  1.00  0.00     0.112 C 
HETATM    8  C   UNL     1       6.971   1.493 -20.098  1.00  0.00     0.026 C 
BRANCH   7   9
HETATM    9  C   UNL     1       5.469   3.346 -19.426  1.00  0.00     0.148 C 
HETATM   10  O   UNL     1       5.133   4.127 -18.567  1.00  0.00    -0.649 OA
BRANCH   9  11
HETATM   11  O   UNL     1       5.391   3.698 -20.719  1.00  0.00    -0.776 OA
HETATM   12  H   UNL     1       6.185   3.690 -21.271  1.00  0.00     0.167 HD
ENDBRANCH   9  11
ENDBRANCH   7   9
ENDBRANCH   1   7
BRANCH   4  13
HETATM   13  C   UNL     1       8.584   2.246 -13.898  1.00  0.00     0.042 C 
BRANCH  13  14
HETATM   14  C   UNL     1       9.094   3.667 -13.658  1.00  0.00    -0.019 C 
HETATM   15  C   UNL     1       8.046   4.459 -12.872  1.00  0.00     0.010 C 
HETATM   16  C   UNL     1      10.397   3.614 -12.860  1.00  0.00     0.010 C 
ENDBRANCH  13  14
ENDBRANCH   4  13
TORSDOF 5
ENDMDL
MODEL 16
REMARK VINA RESULT:    -4.802     11.753     12.655
REMARK INTER + INTRA:          -6.531
REMARK INTER:                  -5.677
REMARK INTRA:                  -0.854
REMARK UNBOUND:                -0.467
REMARK  5 active torsions:
REMARK  status: ('A' for Active; 'I' for Inactive)
REMARK    1  A    between atoms: C_1  and  C_6 
REMARK    2  A    between atoms: C_1  and  O_14 
REMARK    3  A    between atoms: C_2  and  C_3 
REMARK    4  A    between atoms: C_2  and  C_11 
REMARK    5  A    between atoms: C_6  and  C_8 
ROOT
HETATM    1  C   UNL     1       8.387  12.320 -22.111  1.00  0.00    -0.044 A 
HETATM    2  C   UNL     1       9.763  12.388 -21.997  1.00  0.00     0.008 A 
HETATM    3  C   UNL     1      10.365  13.563 -21.592  1.00  0.00     0.007 A 
HETATM    4  C   UNL     1       9.592  14.672 -21.303  1.00  0.00    -0.058 A 
HETATM    5  C   UNL     1       8.216  14.602 -21.412  1.00  0.00     0.007 A 
HETATM    6  C   UNL     1       7.614  13.428 -21.821  1.00  0.00     0.008 A 
ENDROOT
BRANCH   1   7
HETATM    7  C   UNL     1       7.729  11.038 -22.553  1.00  0.00     0.112 C 
HETATM    8  C   UNL     1       6.210  11.183 -22.456  1.00  0.00     0.026 C 
BRANCH   7   9
HETATM    9  C   UNL     1       8.184   9.909 -21.667  1.00  0.00     0.148 C 
HETATM   10  O   UNL     1       8.897   9.041 -22.112  1.00  0.00    -0.649 OA
BRANCH   9  11
HETATM   11  O   UNL     1       7.796   9.865 -20.382  1.00  0.00    -0.776 OA
HETATM   12  H   UNL     1       7.082  10.441 -20.073  1.00  0.00     0.167 HD
ENDBRANCH   9  11
ENDBRANCH   7   9
ENDBRANCH   1   7
BRANCH   4  13
HETATM   13  C   UNL     1      10.249  15.954 -20.862  1.00  0.00     0.042 C 
BRANCH  13  14
HETATM   14  C   UNL     1      10.871  15.759 -19.479  1.00  0.00    -0.019 C 
HETATM   15  C   UNL     1      12.298  16.314 -19.478  1.00  0.00     0.010 C 
HETATM   16  C   UNL     1      10.036  16.500 -18.435  1.00  0.00     0.010 C 
ENDBRANCH  13  14
ENDBRANCH   4  13
TORSDOF 5
ENDMDL
MODEL 17
REMARK VINA RESULT:    -4.721      4.135      6.692
REMARK INTER + INTRA:          -6.430
REMARK INTER:                  -5.569
REMARK INTRA:                  -0.861
REMARK UNBOUND:                -0.467
REMARK  5 active torsions:
REMARK  status: ('A' for Active; 'I' for Inactive)
REMARK    1  A    between atoms: C_1  and  C_6 
REMARK    2  A    between atoms: C_1  and  O_14 
REMARK    3  A    between atoms: C_2  and  C_3 
REMARK    4  A    between atoms: C_2  and  C_11 
REMARK    5  A    between atoms: C_6  and  C_8 
ROOT
HETATM    1  C   UNL     1       6.336   1.875 -16.385  1.00  0.00    -0.044 A 
HETATM    2  C   UNL     1       7.685   1.931 -16.679  1.00  0.00     0.008 A 
HETATM    3  C   UNL     1       8.100   2.202 -17.969  1.00  0.00     0.007 A 
HETATM    4  C   UNL     1       7.165   2.418 -18.964  1.00  0.00    -0.058 A 
HETATM    5  C   UNL     1       5.817   2.368 -18.668  1.00  0.00     0.007 A 
HETATM    6  C   UNL     1       5.402   2.091 -17.379  1.00  0.00     0.008 A 
ENDROOT
BRANCH   1   7
HETATM    7  C   UNL     1       5.883   1.577 -14.979  1.00  0.00     0.112 C 
HETATM    8  C   UNL     1       4.645   0.681 -15.020  1.00  0.00     0.026 C 
BRANCH   7   9
HETATM    9  C   UNL     1       5.548   2.865 -14.275  1.00  0.00     0.148 C 
HETATM   10  O   UNL     1       4.395   3.206 -14.155  1.00  0.00    -0.649 OA
BRANCH   9  11
HETATM   11  O   UNL     1       6.529   3.637 -13.782  1.00  0.00    -0.776 OA
HETATM   12  H   UNL     1       7.428   3.558 -14.131  1.00  0.00     0.167 HD
ENDBRANCH   9  11
ENDBRANCH   7   9
ENDBRANCH   1   7
BRANCH   4  13
HETATM   13  C   UNL     1       7.618   2.715 -20.371  1.00  0.00     0.042 C 
BRANCH  13  14
HETATM   14  C   UNL     1       6.687   2.018 -21.363  1.00  0.00    -0.019 C 
HETATM   15  C   UNL     1       6.353   2.976 -22.509  1.00  0.00     0.010 C 
HETATM   16  C   UNL     1       7.377   0.774 -21.925  1.00  0.00     0.010 C 
ENDBRANCH  13  14
ENDBRANCH   4  13
TORSDOF 5
ENDMDL
MODEL 18
REMARK VINA RESULT:    -4.521     12.551     14.142
REMARK INTER + INTRA:          -6.177
REMARK INTER:                  -5.372
REMARK INTRA:                  -0.805
REMARK UNBOUND:                -0.467
REMARK  5 active torsions:
REMARK  status: ('A' for Active; 'I' for Inactive)
REMARK    1  A    between atoms: C_1  and  C_6 
REMARK    2  A    between atoms: C_1  and  O_14 
REMARK    3  A    between atoms: C_2  and  C_3 
REMARK    4  A    between atoms: C_2  and  C_11 
REMARK    5  A    between atoms: C_6  and  C_8 
ROOT
HETATM    1  C   UNL     1      10.071  15.197 -20.873  1.00  0.00    -0.044 A 
HETATM    2  C   UNL     1       8.694  15.233 -20.992  1.00  0.00     0.008 A 
HETATM    3  C   UNL     1       8.033  14.233 -21.678  1.00  0.00     0.007 A 
HETATM    4  C   UNL     1       8.749  13.196 -22.247  1.00  0.00    -0.058 A 
HETATM    5  C   UNL     1      10.124  13.157 -22.124  1.00  0.00     0.007 A 
HETATM    6  C   UNL     1      10.785  14.160 -21.442  1.00  0.00     0.008 A 
ENDROOT
BRANCH   1   7
HETATM    7  C   UNL     1      10.792  16.289 -20.126  1.00  0.00     0.112 C 
HETATM    8  C   UNL     1      12.176  16.500 -20.741  1.00  0.00     0.026 C 
BRANCH   7   9
HETATM    9  C   UNL     1      10.940  15.895 -18.680  1.00  0.00     0.148 C 
HETATM   10  O   UNL     1      12.040  15.786 -18.193  1.00  0.00    -0.649 OA
BRANCH   9  11
HETATM   11  O   UNL     1       9.849  15.663 -17.932  1.00  0.00    -0.776 OA
HETATM   12  H   UNL     1       8.993  15.513 -18.358  1.00  0.00     0.167 HD
ENDBRANCH   9  11
ENDBRANCH   7   9
ENDBRANCH   1   7
BRANCH   4  13
HETATM   13  C   UNL     1       8.027  12.105 -22.996  1.00  0.00     0.042 C 
BRANCH  13  14
HETATM   14  C   UNL     1       7.035  11.415 -22.060  1.00  0.00    -0.019 C 
HETATM   15  C   UNL     1       5.818  10.948 -22.861  1.00  0.00     0.010 C 
HETATM   16  C   UNL     1       7.707  10.208 -21.404  1.00  0.00     0.010 C 
ENDBRANCH  13  14
ENDBRANCH   4  13
TORSDOF 5
ENDMDL
MODEL 19
REMARK VINA RESULT:    -4.513     11.407     12.304
REMARK INTER + INTRA:          -6.167
REMARK INTER:                  -5.440
REMARK INTRA:                  -0.727
REMARK UNBOUND:                -0.467
REMARK  5 active torsions:
REMARK  status: ('A' for Active; 'I' for Inactive)
REMARK    1  A    between atoms: C_1  and  C_6 
REMARK    2  A    between atoms: C_1  and  O_14 
REMARK    3  A    between atoms: C_2  and  C_3 
REMARK    4  A    between atoms: C_2  and  C_11 
REMARK    5  A    between atoms: C_6  and  C_8 
ROOT
HETATM    1  C   UNL     1       5.414   9.079 -24.385  1.00  0.00    -0.044 A 
HETATM    2  C   UNL     1       6.708   8.698 -24.080  1.00  0.00     0.008 A 
HETATM    3  C   UNL     1       7.471   9.468 -23.225  1.00  0.00     0.007 A 
HETATM    4  C   UNL     1       6.943  10.621 -22.675  1.00  0.00    -0.058 A 
HETATM    5  C   UNL     1       5.648  10.999 -22.975  1.00  0.00     0.007 A 
HETATM    6  C   UNL     1       4.886  10.231 -23.834  1.00  0.00     0.008 A 
ENDROOT
BRANCH   1   7
HETATM    7  C   UNL     1       4.581   8.240 -25.319  1.00  0.00     0.112 C 
HETATM    8  C   UNL     1       3.920   9.141 -26.363  1.00  0.00     0.026 C 
BRANCH   7   9
HETATM    9  C   UNL     1       3.518   7.519 -24.533  1.00  0.00     0.148 C 
HETATM   10  O   UNL     1       2.508   8.097 -24.211  1.00  0.00    -0.649 OA
BRANCH   9  11
HETATM   11  O   UNL     1       3.693   6.233 -24.189  1.00  0.00    -0.776 OA
HETATM   12  H   UNL     1       3.202   5.538 -24.650  1.00  0.00     0.167 HD
ENDBRANCH   9  11
ENDBRANCH   7   9
ENDBRANCH   1   7
BRANCH   4  13
HETATM   13  C   UNL     1       7.776  11.461 -21.741  1.00  0.00     0.042 C 
BRANCH  13  14
HETATM   14  C   UNL     1       8.246  12.719 -22.471  1.00  0.00    -0.019 C 
HETATM   15  C   UNL     1       7.821  13.958 -21.679  1.00  0.00     0.010 C 
HETATM   16  C   UNL     1       9.770  12.696 -22.600  1.00  0.00     0.010 C 
ENDBRANCH  13  14
ENDBRANCH   4  13
TORSDOF 5
ENDMDL
MODEL 20
REMARK VINA RESULT:    -4.328      2.583      6.093
REMARK INTER + INTRA:          -5.933
REMARK INTER:                  -5.466
REMARK INTRA:                  -0.467
REMARK UNBOUND:                -0.467
REMARK  5 active torsions:
REMARK  status: ('A' for Active; 'I' for Inactive)
REMARK    1  A    between atoms: C_1  and  C_6 
REMARK    2  A    between atoms: C_1  and  O_14 
REMARK    3  A    between atoms: C_2  and  C_3 
REMARK    4  A    between atoms: C_2  and  C_11 
REMARK    5  A    between atoms: C_6  and  C_8 
ROOT
HETATM    1  C   UNL     1       7.940   2.811 -14.583  1.00  0.00    -0.044 A 
HETATM    2  C   UNL     1       8.044   1.577 -15.198  1.00  0.00     0.008 A 
HETATM    3  C   UNL     1       7.381   1.340 -16.386  1.00  0.00     0.007 A 
HETATM    4  C   UNL     1       6.614   2.337 -16.960  1.00  0.00    -0.058 A 
HETATM    5  C   UNL     1       6.515   3.571 -16.348  1.00  0.00     0.007 A 
HETATM    6  C   UNL     1       7.174   3.806 -15.157  1.00  0.00     0.008 A 
ENDROOT
BRANCH   1   7
HETATM    7  C   UNL     1       8.662   3.069 -13.285  1.00  0.00     0.112 C 
HETATM    8  C   UNL     1       8.394   4.503 -12.829  1.00  0.00     0.026 C 
BRANCH   7   9
HETATM    9  C   UNL     1      10.142   2.873 -13.486  1.00  0.00     0.148 C 
HETATM   10  O   UNL     1      10.628   1.775 -13.359  1.00  0.00    -0.649 OA
BRANCH   9  11
HETATM   11  O   UNL     1      10.920   3.919 -13.804  1.00  0.00    -0.776 OA
HETATM   12  H   UNL     1      10.950   4.694 -13.225  1.00  0.00     0.167 HD
ENDBRANCH   9  11
ENDBRANCH   7   9
ENDBRANCH   1   7
BRANCH   4  13
HETATM   13  C   UNL     1       5.891   2.078 -18.257  1.00  0.00     0.042 C 
BRANCH  13  14
HETATM   14  C   UNL     1       6.505   2.937 -19.363  1.00  0.00    -0.019 C 
HETATM   15  C   UNL     1       7.951   2.498 -19.606  1.00  0.00     0.010 C 
HETATM   16  C   UNL     1       5.698   2.765 -20.650  1.00  0.00     0.010 C 
ENDBRANCH  13  14
ENDBRANCH   4  13
TORSDOF 5
ENDMDL
