REMARK  5 active torsions:
REMARK  status: ('A' for Active; 'I' for Inactive)
REMARK    1  A    between atoms: C_1  and  C_6 
REMARK    2  A    between atoms: C_1  and  O_14 
REMARK    3  A    between atoms: C_2  and  C_3 
REMARK    4  A    between atoms: C_2  and  C_11 
REMARK    5  A    between atoms: C_6  and  C_8 
ROOT
HETATM    1  C   UNL     1       0.366  -0.129  -1.093  1.00  0.00    -0.044 A 
HETATM    2  C   UNL     1       0.844  -1.130  -0.268  1.00  0.00     0.008 A 
HETATM    3  C   UNL     1       0.424  -1.201   1.046  1.00  0.00     0.007 A 
HETATM    4  C   UNL     1      -0.473  -0.271   1.536  1.00  0.00    -0.058 A 
HETATM    5  C   UNL     1      -0.955   0.726   0.710  1.00  0.00     0.007 A 
HETATM    6  C   UNL     1      -0.531   0.800  -0.603  1.00  0.00     0.008 A 
ENDROOT
BRANCH   1   7
HETATM    7  C   UNL     1       0.825  -0.050  -2.526  1.00  0.00     0.112 C 
HETATM    8  C   UNL     1       1.515   1.293  -2.768  1.00  0.00     0.026 C 
BRANCH   7   9
HETATM    9  C   UNL     1      -0.364  -0.176  -3.442  1.00  0.00     0.148 C 
HETATM   10  O   UNL     1      -1.471  -0.316  -2.979  1.00  0.00    -0.649 OA
BRANCH   9  11
HETATM   11  O   UNL     1      -0.194  -0.134  -4.773  1.00  0.00    -0.776 OA
HETATM   12  H   UNL     1      -0.958  -0.215  -5.361  1.00  0.00     0.167 HD
ENDBRANCH   9  11
ENDBRANCH   7   9
ENDBRANCH   1   7
BRANCH   4  13
HETATM   13  C   UNL     1      -0.931  -0.349   2.970  1.00  0.00     0.042 C 
BRANCH  13  14
HETATM   14  C   UNL     1       0.010   0.473   3.851  1.00  0.00    -0.019 C 
HETATM   15  C   UNL     1      -0.455   0.394   5.307  1.00  0.00     0.010 C 
HETATM   16  C   UNL     1       1.430  -0.083   3.739  1.00  0.00     0.010 C 
ENDBRANCH  13  14
ENDBRANCH   4  13
TORSDOF 5
