IBP
  CCTOOLS-0919241032

 33 33  0  0  1  0  0  0  0  0999 V2000
   -0.3640   -0.1760   -3.4420 C   0  0  0  0  0
   -0.9310   -0.3490    2.9700 C   0  0  0  0  0
    0.0100    0.4730    3.8510 C   0  0  0  0  0
   -0.4550    0.3940    5.3070 C   0  0  0  0  0
    1.4300   -0.0830    3.7390 C   0  0  0  0  0
    0.8250   -0.0500   -2.5260 C   0  0  0  0  0
    1.5150    1.2930   -2.7680 C   0  0  0  0  0
    0.3660   -0.1290   -1.0930 C   0  0  0  0  0
    0.8440   -1.1300   -0.2680 C   0  0  0  0  0
    0.4240   -1.2010    1.0460 C   0  0  0  0  0
   -0.4730   -0.2710    1.5360 C   0  0  0  0  0
   -0.9550    0.7260    0.7100 C   0  0  0  0  0
   -0.5310    0.8000   -0.6030 C   0  0  0  0  0
   -0.1940   -0.1340   -4.7730 O   0  0  0  0  0
   -1.4710   -0.3160   -2.9790 O   0  0  0  0  0
   -0.9210   -1.3880    3.2990 H   0  0  0  0  0
   -1.9430    0.0470    3.0500 H   0  0  0  0  0
    0.0000    1.5120    3.5230 H   0  0  0  0  0
    0.2150    0.9800    5.9350 H   0  0  0  0  0
   -1.4670    0.7910    5.3870 H   0  0  0  0  0
   -0.4450   -0.6440    5.6360 H   0  0  0  0  0
    1.4400   -1.1220    4.0680 H   0  0  0  0  0
    1.7620   -0.0270    2.7020 H   0  0  0  0  0
    2.1010    0.5030    4.3670 H   0  0  0  0  0
    1.5260   -0.8600   -2.7280 H   0  0  0  0  0
    0.8130    2.1030   -2.5660 H   0  0  0  0  0
    2.3750    1.3840   -2.1060 H   0  0  0  0  0
    1.8470    1.3500   -3.8050 H   0  0  0  0  0
    1.5460   -1.8560   -0.6510 H   0  0  0  0  0
    0.7970   -1.9830    1.6900 H   0  0  0  0  0
   -1.6560    1.4520    1.0930 H   0  0  0  0  0
   -0.9040    1.5820   -1.2470 H   0  0  0  0  0
   -0.9580   -0.2150   -5.3610 H   0  0  0  0  0
  1  6  1  0  0  0
  1 14  1  0  0  0
  1 15  2  0  0  0
  2  3  1  0  0  0
  2 11  1  0  0  0
  2 16  1  0  0  0
  2 17  1  0  0  0
  3  4  1  0  0  0
  3  5  1  0  0  0
  3 18  1  0  0  0
  4 19  1  0  0  0
  4 20  1  0  0  0
  4 21  1  0  0  0
  5 22  1  0  0  0
  5 23  1  0  0  0
  5 24  1  0  0  0
  6  7  1  0  0  0
  6  8  1  0  0  0
  6 25  1  0  0  0
  7 26  1  0  0  0
  7 27  1  0  0  0
  7 28  1  0  0  0
  8  9  2  0  0  0
  8 13  1  0  0  0
  9 10  1  0  0  0
  9 29  1  0  0  0
 10 11  2  0  0  0
 10 30  1  0  0  0
 11 12  1  0  0  0
 12 13  2  0  0  0
 12 31  1  0  0  0
 13 32  1  0  0  0
 14 33  1  0  0  0
M  END
$$$$
