57339252
  -OEChem-08282513133D

111111  0     1  0  0  0  0  0999 V2000
   -0.4049   -2.4817   -0.4103 O   0  0  0  0  0  0  0  0  0  0  0  0
   -2.3368    2.2049   -0.1487 O   0  0  0  0  0  0  0  0  0  0  0  0
    2.0286    0.4435    0.9899 O   0  0  0  0  0  0  0  0  0  0  0  0
   -2.3217   -1.0834   -1.4540 O   0  0  0  0  0  0  0  0  0  0  0  0
    4.3455   -1.7483    2.2989 O   0  0  0  0  0  0  0  0  0  0  0  0
   -0.0847    1.3442   -1.2108 O   0  0  0  0  0  0  0  0  0  0  0  0
    0.6634   -3.8873    1.0750 O   0  0  0  0  0  0  0  0  0  0  0  0
   -2.0314    1.1260    1.8690 O   0  0  0  0  0  0  0  0  0  0  0  0
    4.2441    0.7623    0.4542 O   0  0  0  0  0  0  0  0  0  0  0  0
   -3.3944   -0.9755    0.6010 N   0  0  0  0  0  0  0  0  0  0  0  0
    3.0507   -2.5560    0.5532 N   0  0  0  0  0  0  0  0  0  0  0  0
    1.3180    2.7786   -0.0462 N   0  0  0  0  0  0  0  0  0  0  0  0
   -3.8026    0.4210    0.3524 C   0  0  1  0  0  0  0  0  0  0  0  0
    1.9318   -2.4089   -0.4011 C   0  0  1  0  0  0  0  0  0  0  0  0
    2.5345    2.1366   -0.5974 C   0  0  1  0  0  0  0  0  0  0  0  0
   -5.0769    0.8904    1.0410 C   0  0  2  0  0  0  0  0  0  0  0  0
    2.1905   -2.9799   -1.7944 C   0  0  2  0  0  0  0  0  0  0  0  0
    3.6253    3.1343   -0.9827 C   0  0  2  0  0  0  0  0  0  0  0  0
   -1.7140   -2.7661    0.1289 C   0  0  2  0  0  0  0  0  0  0  0  0
   -1.1816    3.0369    0.0792 C   0  0  2  0  0  0  0  0  0  0  0  0
    2.2643   -0.5971    1.9427 C   0  0  2  0  0  0  0  0  0  0  0  0
   -6.3089    0.0685    0.6215 C   0  0  0  0  0  0  0  0  0  0  0  0
    1.3066   -2.3240   -2.8691 C   0  0  0  0  0  0  0  0  0  0  0  0
    3.1193    4.2191   -1.9528 C   0  0  0  0  0  0  0  0  0  0  0  0
   -2.2679   -4.0409   -0.4804 C   0  0  0  0  0  0  0  0  0  0  0  0
   -1.4009    4.3270   -0.6990 C   0  0  0  0  0  0  0  0  0  0  0  0
    2.5487    0.0682    3.2905 C   0  0  0  0  0  0  0  0  0  0  0  0
   -2.5180   -1.5559   -0.3283 C   0  0  0  0  0  0  0  0  0  0  0  0
    3.3234   -1.6699    1.6079 C   0  0  0  0  0  0  0  0  0  0  0  0
    0.0586    2.3065   -0.4482 C   0  0  0  0  0  0  0  0  0  0  0  0
    0.6835   -3.0375    0.1964 C   0  0  0  0  0  0  0  0  0  0  0  0
   -2.6264    1.2731    0.8089 C   0  0  0  0  0  0  0  0  0  0  0  0
    3.0629    1.0718    0.3639 C   0  0  0  0  0  0  0  0  0  0  0  0
   -5.3150    2.3722    0.7377 C   0  0  0  0  0  0  0  0  0  0  0  0
    1.9599   -4.4926   -1.7835 C   0  0  0  0  0  0  0  0  0  0  0  0
    4.8117    2.3951   -1.6107 C   0  0  0  0  0  0  0  0  0  0  0  0
   -3.7992   -1.6220    1.8514 C   0  0  0  0  0  0  0  0  0  0  0  0
    3.9369   -3.7083    0.3847 C   0  0  0  0  0  0  0  0  0  0  0  0
    1.5308    3.8307    0.9529 C   0  0  0  0  0  0  0  0  0  0  0  0
   -6.6029    0.1315   -0.8705 C   0  0  0  0  0  0  0  0  0  0  0  0
    1.5467   -2.8676   -4.2704 C   0  0  0  0  0  0  0  0  0  0  0  0
    2.5895    3.6599   -3.2655 C   0  0  0  0  0  0  0  0  0  0  0  0
   -2.6403   -3.8205   -1.9454 C   0  0  0  0  0  0  0  0  0  0  0  0
   -3.4779   -4.5351    0.3110 C   0  0  0  0  0  0  0  0  0  0  0  0
   -2.2576    5.3037    0.1053 C   0  0  0  0  0  0  0  0  0  0  0  0
   -2.0483    4.0376   -2.0525 C   0  0  0  0  0  0  0  0  0  0  0  0
    3.6572    1.1092    3.1520 C   0  0  0  0  0  0  0  0  0  0  0  0
    1.2802    0.7059    3.8525 C   0  0  0  0  0  0  0  0  0  0  0  0
   -3.8882    0.5503   -0.7334 H   0  0  0  0  0  0  0  0  0  0  0  0
    1.7426   -1.3384   -0.4959 H   0  0  0  0  0  0  0  0  0  0  0  0
    2.2437    1.5650   -1.4880 H   0  0  0  0  0  0  0  0  0  0  0  0
   -4.9827    0.8088    2.1308 H   0  0  0  0  0  0  0  0  0  0  0  0
    3.2277   -2.7718   -2.0846 H   0  0  0  0  0  0  0  0  0  0  0  0
    4.0140    3.6500   -0.0961 H   0  0  0  0  0  0  0  0  0  0  0  0
   -1.5936   -2.8232    1.2093 H   0  0  0  0  0  0  0  0  0  0  0  0
   -1.0842    3.2336    1.1496 H   0  0  0  0  0  0  0  0  0  0  0  0
    1.3181   -1.1433    2.0364 H   0  0  0  0  0  0  0  0  0  0  0  0
   -6.2364   -0.9790    0.9088 H   0  0  0  0  0  0  0  0  0  0  0  0
   -7.1856    0.4538    1.1586 H   0  0  0  0  0  0  0  0  0  0  0  0
    0.2439   -2.4420   -2.6538 H   0  0  0  0  0  0  0  0  0  0  0  0
    1.5043   -1.2446   -2.8789 H   0  0  0  0  0  0  0  0  0  0  0  0
    2.3392    4.8335   -1.4965 H   0  0  0  0  0  0  0  0  0  0  0  0
    3.9429    4.9094   -2.1763 H   0  0  0  0  0  0  0  0  0  0  0  0
   -1.4962   -4.8200   -0.4489 H   0  0  0  0  0  0  0  0  0  0  0  0
   -0.4419    4.8232   -0.8876 H   0  0  0  0  0  0  0  0  0  0  0  0
    2.8721   -0.6890    4.0164 H   0  0  0  0  0  0  0  0  0  0  0  0
   -6.3101    2.6859    1.0725 H   0  0  0  0  0  0  0  0  0  0  0  0
   -4.5962    3.0027    1.2715 H   0  0  0  0  0  0  0  0  0  0  0  0
   -5.2304    2.6003   -0.3298 H   0  0  0  0  0  0  0  0  0  0  0  0
    2.4669   -4.9482   -2.6425 H   0  0  0  0  0  0  0  0  0  0  0  0
    2.3132   -5.0336   -0.9101 H   0  0  0  0  0  0  0  0  0  0  0  0
    0.8951   -4.7350   -1.8891 H   0  0  0  0  0  0  0  0  0  0  0  0
    5.3851    3.0624   -2.2657 H   0  0  0  0  0  0  0  0  0  0  0  0
    5.5336    2.0611   -0.8601 H   0  0  0  0  0  0  0  0  0  0  0  0
    4.5033    1.5351   -2.2150 H   0  0  0  0  0  0  0  0  0  0  0  0
   -3.7521   -0.9015    2.6721 H   0  0  0  0  0  0  0  0  0  0  0  0
   -3.1744   -2.4585    2.1473 H   0  0  0  0  0  0  0  0  0  0  0  0
   -4.8091   -2.0168    1.7573 H   0  0  0  0  0  0  0  0  0  0  0  0
    3.4125   -4.6112    0.7044 H   0  0  0  0  0  0  0  0  0  0  0  0
    4.8125   -3.6243    1.0362 H   0  0  0  0  0  0  0  0  0  0  0  0
    4.3249   -3.7885   -0.6308 H   0  0  0  0  0  0  0  0  0  0  0  0
    2.4995    3.7210    1.4428 H   0  0  0  0  0  0  0  0  0  0  0  0
    0.7721    3.7769    1.7350 H   0  0  0  0  0  0  0  0  0  0  0  0
    1.4651    4.8100    0.4760 H   0  0  0  0  0  0  0  0  0  0  0  0
   -7.5213   -0.4262   -1.0849 H   0  0  0  0  0  0  0  0  0  0  0  0
   -6.7605    1.1550   -1.2207 H   0  0  0  0  0  0  0  0  0  0  0  0
   -5.8059   -0.3260   -1.4635 H   0  0  0  0  0  0  0  0  0  0  0  0
    0.9849   -2.2766   -5.0013 H   0  0  0  0  0  0  0  0  0  0  0  0
    2.6067   -2.8139   -4.5377 H   0  0  0  0  0  0  0  0  0  0  0  0
    1.2145   -3.9056   -4.3651 H   0  0  0  0  0  0  0  0  0  0  0  0
    2.3153    4.4855   -3.9312 H   0  0  0  0  0  0  0  0  0  0  0  0
    3.3357    3.0547   -3.7879 H   0  0  0  0  0  0  0  0  0  0  0  0
    1.6904    3.0553   -3.1178 H   0  0  0  0  0  0  0  0  0  0  0  0
   -1.8157   -3.4002   -2.5266 H   0  0  0  0  0  0  0  0  0  0  0  0
   -2.8807   -4.7871   -2.4051 H   0  0  0  0  0  0  0  0  0  0  0  0
   -3.5325   -3.1984   -2.0724 H   0  0  0  0  0  0  0  0  0  0  0  0
   -3.8121   -5.5028   -0.0802 H   0  0  0  0  0  0  0  0  0  0  0  0
   -3.2288   -4.6812    1.3667 H   0  0  0  0  0  0  0  0  0  0  0  0
   -4.3265   -3.8492    0.2363 H   0  0  0  0  0  0  0  0  0  0  0  0
   -1.7780    5.5490    1.0589 H   0  0  0  0  0  0  0  0  0  0  0  0
   -2.3988    6.2393   -0.4462 H   0  0  0  0  0  0  0  0  0  0  0  0
   -3.2474    4.8879    0.3194 H   0  0  0  0  0  0  0  0  0  0  0  0
   -2.0938    4.9568   -2.6480 H   0  0  0  0  0  0  0  0  0  0  0  0
   -1.4708    3.3091   -2.6305 H   0  0  0  0  0  0  0  0  0  0  0  0
   -3.0763    3.6715   -1.9575 H   0  0  0  0  0  0  0  0  0  0  0  0
    3.9129    1.4691    4.1581 H   0  0  0  0  0  0  0  0  0  0  0  0
    4.5904    0.7019    2.7586 H   0  0  0  0  0  0  0  0  0  0  0  0
    3.3567    2.0065    2.6105 H   0  0  0  0  0  0  0  0  0  0  0  0
    0.4924   -0.0429    3.9878 H   0  0  0  0  0  0  0  0  0  0  0  0
    1.4765    1.1603    4.8296 H   0  0  0  0  0  0  0  0  0  0  0  0
    0.8923    1.4889    3.1924 H   0  0  0  0  0  0  0  0  0  0  0  0
  1 19  1  0  0  0  0
  1 31  1  0  0  0  0
  2 20  1  0  0  0  0
  2 32  1  0  0  0  0
  3 21  1  0  0  0  0
  3 33  1  0  0  0  0
  4 28  2  0  0  0  0
  5 29  2  0  0  0  0
  6 30  2  0  0  0  0
  7 31  2  0  0  0  0
  8 32  2  0  0  0  0
  9 33  2  0  0  0  0
 10 13  1  0  0  0  0
 10 28  1  0  0  0  0
 10 37  1  0  0  0  0
 11 14  1  0  0  0  0
 11 29  1  0  0  0  0
 11 38  1  0  0  0  0
 12 15  1  0  0  0  0
 12 30  1  0  0  0  0
 12 39  1  0  0  0  0
 13 16  1  0  0  0  0
 13 32  1  0  0  0  0
 13 49  1  0  0  0  0
 14 17  1  0  0  0  0
 14 31  1  0  0  0  0
 14 50  1  0  0  0  0
 15 18  1  0  0  0  0
 15 33  1  0  0  0  0
 15 51  1  0  0  0  0
 16 22  1  0  0  0  0
 16 34  1  0  0  0  0
 16 52  1  0  0  0  0
 17 23  1  0  0  0  0
 17 35  1  0  0  0  0
 17 53  1  0  0  0  0
 18 24  1  0  0  0  0
 18 36  1  0  0  0  0
 18 54  1  0  0  0  0
 19 25  1  0  0  0  0
 19 28  1  0  0  0  0
 19 55  1  0  0  0  0
 20 26  1  0  0  0  0
 20 30  1  0  0  0  0
 20 56  1  0  0  0  0
 21 27  1  0  0  0  0
 21 29  1  0  0  0  0
 21 57  1  0  0  0  0
 22 40  1  0  0  0  0
 22 58  1  0  0  0  0
 22 59  1  0  0  0  0
 23 41  1  0  0  0  0
 23 60  1  0  0  0  0
 23 61  1  0  0  0  0
 24 42  1  0  0  0  0
 24 62  1  0  0  0  0
 24 63  1  0  0  0  0
 25 43  1  0  0  0  0
 25 44  1  0  0  0  0
 25 64  1  0  0  0  0
 26 45  1  0  0  0  0
 26 46  1  0  0  0  0
 26 65  1  0  0  0  0
 27 47  1  0  0  0  0
 27 48  1  0  0  0  0
 27 66  1  0  0  0  0
 34 67  1  0  0  0  0
 34 68  1  0  0  0  0
 34 69  1  0  0  0  0
 35 70  1  0  0  0  0
 35 71  1  0  0  0  0
 35 72  1  0  0  0  0
 36 73  1  0  0  0  0
 36 74  1  0  0  0  0
 36 75  1  0  0  0  0
 37 76  1  0  0  0  0
 37 77  1  0  0  0  0
 37 78  1  0  0  0  0
 38 79  1  0  0  0  0
 38 80  1  0  0  0  0
 38 81  1  0  0  0  0
 39 82  1  0  0  0  0
 39 83  1  0  0  0  0
 39 84  1  0  0  0  0
 40 85  1  0  0  0  0
 40 86  1  0  0  0  0
 40 87  1  0  0  0  0
 41 88  1  0  0  0  0
 41 89  1  0  0  0  0
 41 90  1  0  0  0  0
 42 91  1  0  0  0  0
 42 92  1  0  0  0  0
 42 93  1  0  0  0  0
 43 94  1  0  0  0  0
 43 95  1  0  0  0  0
 43 96  1  0  0  0  0
 44 97  1  0  0  0  0
 44 98  1  0  0  0  0
 44 99  1  0  0  0  0
 45100  1  0  0  0  0
 45101  1  0  0  0  0
 45102  1  0  0  0  0
 46103  1  0  0  0  0
 46104  1  0  0  0  0
 46105  1  0  0  0  0
 47106  1  0  0  0  0
 47107  1  0  0  0  0
 47108  1  0  0  0  0
 48109  1  0  0  0  0
 48110  1  0  0  0  0
 48111  1  0  0  0  0
M  END
> <PUBCHEM_COMPOUND_CID>
57339252

> <PUBCHEM_CONFORMER_RMSD>
1.2

> <PUBCHEM_CONFORMER_DIVERSEORDER>
1
9
13
12
8
3
7
6
10
4
2
5
11

> <PUBCHEM_MMFF94_PARTIAL_CHARGES>
27
1 -0.43
10 -0.66
11 -0.66
12 -0.66
13 0.36
14 0.36
15 0.36
19 0.34
2 -0.43
20 0.34
21 0.34
28 0.57
29 0.57
3 -0.43
30 0.57
31 0.66
32 0.66
33 0.66
37 0.3
38 0.3
39 0.3
4 -0.57
5 -0.57
6 -0.57
7 -0.57
8 -0.57
9 -0.57

> <PUBCHEM_EFFECTIVE_ROTOR_COUNT>
11.4

> <PUBCHEM_PHARMACOPHORE_FEATURES>
15
1 34 hydrophobe
1 35 hydrophobe
1 36 hydrophobe
1 4 acceptor
1 40 hydrophobe
1 41 hydrophobe
1 42 hydrophobe
1 5 acceptor
1 6 acceptor
1 7 acceptor
1 8 acceptor
1 9 acceptor
3 25 43 44 hydrophobe
3 26 45 46 hydrophobe
3 27 47 48 hydrophobe

> <PUBCHEM_HEAVY_ATOM_COUNT>
48

> <PUBCHEM_ATOM_DEF_STEREO_COUNT>
9

> <PUBCHEM_ATOM_UDEF_STEREO_COUNT>
0

> <PUBCHEM_BOND_DEF_STEREO_COUNT>
0

> <PUBCHEM_BOND_UDEF_STEREO_COUNT>
0

> <PUBCHEM_ISOTOPIC_ATOM_COUNT>
0

> <PUBCHEM_COMPONENT_COUNT>
1

> <PUBCHEM_CACTVS_TAUTO_COUNT>
24

> <PUBCHEM_CONFORMER_ID>
036AED7400000001

> <PUBCHEM_MMFF94_ENERGY>
145.8057

> <PUBCHEM_FEATURE_SELFOVERLAP>
76.139

> <PUBCHEM_SHAPE_FINGERPRINT>
11093857 51 18272368728030889686
11513181 2 18130515132848048847
12107698 1 17968372321436187248
14279260 333 17682678777463378276
14725015 67 18192988215333809939
15001296 14 18262801886253812052
15264996 44 18200881660316277103
15274700 242 17682673283646630808
15297060 5 18129115583083854080
19311894 1 16825598596574275722
19319366 153 16389007843758520539
20764821 26 18410288150978497607
35225 105 17485044748375903130
50150288 127 15514238552909957532
508706 21 17977099059774534473

> <PUBCHEM_SHAPE_MULTIPOLES>
920.05
9.94
7.96
3.32
10.52
0.37
0.08
1.98
-1.66
-0.89
4.63
-3.93
-0.56
-1.33

> <PUBCHEM_SHAPE_SELFOVERLAP>
1845.585

> <PUBCHEM_SHAPE_VOLUME>
536.4

> <PUBCHEM_COORDINATE_TYPE>
2
5
10

$$$$
