REMARK  9 active torsions:
REMARK  status: ('A' for Active; 'I' for Inactive)
REMARK    1  A    between atoms: C_13  and  C_16 
REMARK    2  A    between atoms: C_14  and  C_17 
REMARK    3  A    between atoms: C_15  and  C_18 
REMARK    4  A    between atoms: C_16  and  C_22 
REMARK    5  A    between atoms: C_17  and  C_23 
REMARK    6  A    between atoms: C_18  and  C_24 
REMARK    7  A    between atoms: C_19  and  C_25 
REMARK    8  A    between atoms: C_20  and  C_26 
REMARK    9  A    between atoms: C_21  and  C_27 
ROOT
HETATM    1  O   UNL     1      -0.405  -2.482  -0.410  1.00  0.00    -0.304 OA
HETATM    2  O   UNL     1      -2.337   2.205  -0.149  1.00  0.00    -0.304 OA
HETATM    3  O   UNL     1       2.029   0.444   0.990  1.00  0.00    -0.304 OA
HETATM    4  O   UNL     1      -2.322  -1.083  -1.454  1.00  0.00    -0.270 OA
HETATM    5  O   UNL     1       4.346  -1.748   2.299  1.00  0.00    -0.270 OA
HETATM    6  O   UNL     1      -0.085   1.344  -1.211  1.00  0.00    -0.270 OA
HETATM    7  O   UNL     1       0.663  -3.887   1.075  1.00  0.00    -0.263 OA
HETATM    8  O   UNL     1      -2.031   1.126   1.869  1.00  0.00    -0.263 OA
HETATM    9  O   UNL     1       4.244   0.762   0.454  1.00  0.00    -0.263 OA
HETATM   10  N   UNL     1      -3.394  -0.976   0.601  1.00  0.00    -0.340 N 
HETATM   11  N   UNL     1       3.051  -2.556   0.553  1.00  0.00    -0.340 N 
HETATM   12  N   UNL     1       1.318   2.779  -0.046  1.00  0.00    -0.340 N 
HETATM   13  C   UNL     1      -3.803   0.421   0.352  1.00  0.00     0.190 C 
HETATM   14  C   UNL     1       1.932  -2.409  -0.401  1.00  0.00     0.190 C 
HETATM   15  C   UNL     1       2.534   2.137  -0.597  1.00  0.00     0.190 C 
HETATM   16  C   UNL     1      -1.714  -2.766   0.129  1.00  0.00     0.227 C 
HETATM   17  C   UNL     1      -1.182   3.037   0.079  1.00  0.00     0.227 C 
HETATM   18  C   UNL     1       2.264  -0.597   1.943  1.00  0.00     0.227 C 
HETATM   19  C   UNL     1      -2.518  -1.556  -0.328  1.00  0.00     0.250 C 
HETATM   20  C   UNL     1       3.323  -1.670   1.608  1.00  0.00     0.250 C 
HETATM   21  C   UNL     1       0.059   2.307  -0.448  1.00  0.00     0.250 C 
HETATM   22  C   UNL     1       0.683  -3.038   0.196  1.00  0.00     0.283 C 
HETATM   23  C   UNL     1      -2.626   1.273   0.809  1.00  0.00     0.283 C 
HETATM   24  C   UNL     1       3.063   1.072   0.364  1.00  0.00     0.283 C 
HETATM   25  C   UNL     1      -3.799  -1.622   1.851  1.00  0.00     0.153 C 
HETATM   26  C   UNL     1       3.937  -3.708   0.385  1.00  0.00     0.153 C 
HETATM   27  C   UNL     1       1.531   3.831   0.953  1.00  0.00     0.153 C 
ENDROOT
BRANCH  16  28
HETATM   28  C   UNL     1      -2.268  -4.041  -0.480  1.00  0.00     0.016 C 
HETATM   29  C   UNL     1      -2.640  -3.821  -1.945  1.00  0.00     0.012 C 
HETATM   30  C   UNL     1      -3.478  -4.535   0.311  1.00  0.00     0.012 C 
ENDBRANCH  16  28
BRANCH  14  31
HETATM   31  C   UNL     1       2.191  -2.980  -1.794  1.00  0.00     0.014 C 
HETATM   32  C   UNL     1       1.960  -4.493  -1.784  1.00  0.00     0.012 C 
BRANCH  31  33
HETATM   33  C   UNL     1       1.307  -2.324  -2.869  1.00  0.00     0.002 C 
HETATM   34  C   UNL     1       1.547  -2.868  -4.270  1.00  0.00     0.005 C 
ENDBRANCH  31  33
ENDBRANCH  14  31
BRANCH  13  35
HETATM   35  C   UNL     1      -5.077   0.890   1.041  1.00  0.00     0.014 C 
HETATM   36  C   UNL     1      -5.315   2.372   0.738  1.00  0.00     0.012 C 
BRANCH  35  37
HETATM   37  C   UNL     1      -6.309   0.069   0.622  1.00  0.00     0.002 C 
HETATM   38  C   UNL     1      -6.603   0.132  -0.871  1.00  0.00     0.005 C 
ENDBRANCH  35  37
ENDBRANCH  13  35
BRANCH  18  39
HETATM   39  C   UNL     1       2.549   0.068   3.291  1.00  0.00     0.016 C 
HETATM   40  C   UNL     1       3.657   1.109   3.152  1.00  0.00     0.012 C 
HETATM   41  C   UNL     1       1.280   0.706   3.853  1.00  0.00     0.012 C 
ENDBRANCH  18  39
BRANCH  17  42
HETATM   42  C   UNL     1      -1.401   4.327  -0.699  1.00  0.00     0.016 C 
HETATM   43  C   UNL     1      -2.258   5.304   0.105  1.00  0.00     0.012 C 
HETATM   44  C   UNL     1      -2.048   4.038  -2.053  1.00  0.00     0.012 C 
ENDBRANCH  17  42
BRANCH  15  45
HETATM   45  C   UNL     1       3.625   3.134  -0.983  1.00  0.00     0.014 C 
HETATM   46  C   UNL     1       4.812   2.395  -1.611  1.00  0.00     0.012 C 
BRANCH  45  47
HETATM   47  C   UNL     1       3.119   4.219  -1.953  1.00  0.00     0.002 C 
HETATM   48  C   UNL     1       2.590   3.660  -3.265  1.00  0.00     0.005 C 
ENDBRANCH  45  47
ENDBRANCH  15  45
TORSDOF 9
