MODEL 1
REMARK VINA RESULT:    -8.926      0.000      0.000
REMARK INTER + INTRA:          -5.425
REMARK INTER:                  -7.820
REMARK INTRA:                   2.396
REMARK UNBOUND:                 6.632
REMARK  6 active torsions:
REMARK  status: ('A' for Active; 'I' for Inactive)
REMARK    1  A    between atoms: C_13  and  C_16 
REMARK    2  A    between atoms: C_14  and  C_17 
REMARK    3  A    between atoms: C_15  and  C_18 
REMARK    4  A    between atoms: C_19  and  C_22 
REMARK    5  A    between atoms: C_20  and  C_23 
REMARK    6  A    between atoms: C_21  and  C_24 
ROOT
HETATM    1  O   UNL     1       4.328  25.546   8.871  1.00  0.00    -0.304 OA
HETATM    2  O   UNL     1      -0.774  25.583   8.004  1.00  0.00    -0.304 OA
HETATM    3  O   UNL     1       1.995  24.704   4.273  1.00  0.00    -0.304 OA
HETATM    4  O   UNL     1       2.389  23.870   8.488  1.00  0.00    -0.270 OA
HETATM    5  O   UNL     1       4.160  23.356   6.193  1.00  0.00    -0.270 OA
HETATM    6  O   UNL     1      -2.018  24.783   5.120  1.00  0.00    -0.270 OA
HETATM    7  O   UNL     1       3.448  27.159   7.478  1.00  0.00    -0.263 OA
HETATM    8  O   UNL     1      -1.794  23.529   7.797  1.00  0.00    -0.263 OA
HETATM    9  O   UNL     1       1.658  24.830   2.005  1.00  0.00    -0.263 OA
HETATM   10  N   UNL     1       0.860  24.842   9.927  1.00  0.00    -0.340 N 
HETATM   11  N   UNL     1       4.633  25.515   5.486  1.00  0.00    -0.340 N 
HETATM   12  N   UNL     1      -0.163  26.170   4.902  1.00  0.00    -0.340 N 
HETATM   13  C   UNL     1      -0.163  23.845   9.545  1.00  0.00     0.190 C 
HETATM   14  C   UNL     1       5.335  25.805   6.753  1.00  0.00     0.190 C 
HETATM   15  C   UNL     1       0.024  25.832   3.476  1.00  0.00     0.190 C 
HETATM   16  C   UNL     1       3.231  25.684   9.801  1.00  0.00     0.227 C 
HETATM   17  C   UNL     1      -1.557  26.225   6.984  1.00  0.00     0.227 C 
HETATM   18  C   UNL     1       3.226  23.982   4.082  1.00  0.00     0.227 C 
HETATM   19  C   UNL     1       2.130  24.724   9.344  1.00  0.00     0.250 C 
HETATM   20  C   UNL     1       4.045  24.245   5.343  1.00  0.00     0.250 C 
HETATM   21  C   UNL     1      -1.272  25.646   5.590  1.00  0.00     0.250 C 
HETATM   22  C   UNL     1       4.263  26.280   7.720  1.00  0.00     0.283 C 
HETATM   23  C   UNL     1      -0.994  24.283   8.341  1.00  0.00     0.283 C 
HETATM   24  C   UNL     1       1.316  25.083   3.155  1.00  0.00     0.283 C 
HETATM   25  C   UNL     1       0.468  25.903  10.858  1.00  0.00     0.153 C 
HETATM   26  C   UNL     1       4.566  26.580   4.481  1.00  0.00     0.153 C 
HETATM   27  C   UNL     1       0.725  27.181   5.480  1.00  0.00     0.153 C 
ENDROOT
BRANCH  16  28
HETATM   28  C   UNL     1       3.761  25.282  11.169  1.00  0.00     0.016 C 
HETATM   29  C   UNL     1       3.971  23.771  11.244  1.00  0.00     0.012 C 
HETATM   30  C   UNL     1       5.063  26.018  11.483  1.00  0.00     0.012 C 
ENDBRANCH  16  28
BRANCH  14  31
HETATM   31  C   UNL     1       6.462  26.827   6.674  1.00  0.00     0.010 C 
HETATM   32  C   UNL     1       6.976  27.169   8.070  1.00  0.00     0.012 C 
HETATM   33  C   UNL     1       7.598  26.306   5.797  1.00  0.00     0.012 C 
ENDBRANCH  14  31
BRANCH  13  34
HETATM   34  C   UNL     1      -1.089  23.442  10.691  1.00  0.00     0.010 C 
HETATM   35  C   UNL     1      -1.264  21.924  10.735  1.00  0.00     0.012 C 
HETATM   36  C   UNL     1      -2.445  24.132  10.560  1.00  0.00     0.012 C 
ENDBRANCH  13  34
BRANCH  18  37
HETATM   37  C   UNL     1       2.902  22.499   3.919  1.00  0.00     0.016 C 
HETATM   38  C   UNL     1       1.782  22.301   2.897  1.00  0.00     0.012 C 
HETATM   39  C   UNL     1       4.147  21.716   3.507  1.00  0.00     0.012 C 
ENDBRANCH  18  37
BRANCH  17  40
HETATM   40  C   UNL     1      -3.047  26.226   7.328  1.00  0.00     0.016 C 
HETATM   41  C   UNL     1      -3.869  26.764   6.158  1.00  0.00     0.012 C 
HETATM   42  C   UNL     1      -3.306  27.048   8.589  1.00  0.00     0.012 C 
ENDBRANCH  17  40
BRANCH  15  43
HETATM   43  C   UNL     1      -0.111  27.071   2.589  1.00  0.00     0.010 C 
HETATM   44  C   UNL     1       1.098  27.200   1.666  1.00  0.00     0.012 C 
HETATM   45  C   UNL     1      -1.403  27.009   1.780  1.00  0.00     0.012 C 
ENDBRANCH  15  43
TORSDOF 6
ENDMDL
MODEL 2
REMARK VINA RESULT:    -7.707      1.201      1.584
REMARK INTER + INTRA:          -3.777
REMARK INTER:                  -7.067
REMARK INTRA:                   3.289
REMARK UNBOUND:                 6.632
REMARK  6 active torsions:
REMARK  status: ('A' for Active; 'I' for Inactive)
REMARK    1  A    between atoms: C_13  and  C_16 
REMARK    2  A    between atoms: C_14  and  C_17 
REMARK    3  A    between atoms: C_15  and  C_18 
REMARK    4  A    between atoms: C_19  and  C_22 
REMARK    5  A    between atoms: C_20  and  C_23 
REMARK    6  A    between atoms: C_21  and  C_24 
ROOT
HETATM    1  O   UNL     1       5.348  26.018   7.778  1.00  0.00    -0.304 OA
HETATM    2  O   UNL     1       0.174  25.951   7.842  1.00  0.00    -0.304 OA
HETATM    3  O   UNL     1       2.263  23.983   4.085  1.00  0.00    -0.304 OA
HETATM    4  O   UNL     1       3.411  24.356   8.228  1.00  0.00    -0.270 OA
HETATM    5  O   UNL     1       4.763  23.168   5.897  1.00  0.00    -0.270 OA
HETATM    6  O   UNL     1      -1.539  24.407   5.564  1.00  0.00    -0.270 OA
HETATM    7  O   UNL     1       4.200  27.198   6.164  1.00  0.00    -0.263 OA
HETATM    8  O   UNL     1      -0.820  23.951   8.403  1.00  0.00    -0.263 OA
HETATM    9  O   UNL     1       1.531  23.475   1.968  1.00  0.00    -0.263 OA
HETATM   10  N   UNL     1       2.137  25.735   9.579  1.00  0.00    -0.340 N 
HETATM   11  N   UNL     1       5.055  25.028   4.540  1.00  0.00    -0.340 N 
HETATM   12  N   UNL     1       0.217  25.625   4.644  1.00  0.00    -0.340 N 
HETATM   13  C   UNL     1       1.086  24.700   9.678  1.00  0.00     0.190 C 
HETATM   14  C   UNL     1       5.961  25.643   5.531  1.00  0.00     0.190 C 
HETATM   15  C   UNL     1       0.158  24.895   3.360  1.00  0.00     0.190 C 
HETATM   16  C   UNL     1       4.429  26.442   8.809  1.00  0.00     0.227 C 
HETATM   17  C   UNL     1      -0.791  26.302   6.836  1.00  0.00     0.227 C 
HETATM   18  C   UNL     1       3.458  23.202   3.893  1.00  0.00     0.227 C 
HETATM   19  C   UNL     1       3.286  25.423   8.840  1.00  0.00     0.250 C 
HETATM   20  C   UNL     1       4.480  23.786   4.866  1.00  0.00     0.250 C 
HETATM   21  C   UNL     1      -0.742  25.347   5.634  1.00  0.00     0.250 C 
HETATM   22  C   UNL     1       5.066  26.399   6.497  1.00  0.00     0.283 C 
HETATM   23  C   UNL     1       0.046  24.805   8.564  1.00  0.00     0.283 C 
HETATM   24  C   UNL     1       1.390  24.050   3.042  1.00  0.00     0.283 C 
HETATM   25  C   UNL     1       1.890  27.026  10.228  1.00  0.00     0.153 C 
HETATM   26  C   UNL     1       4.788  25.769   3.303  1.00  0.00     0.153 C 
HETATM   27  C   UNL     1       1.169  26.733   4.749  1.00  0.00     0.153 C 
ENDROOT
BRANCH  16  28
HETATM   28  C   UNL     1       5.200  26.426  10.120  1.00  0.00     0.016 C 
HETATM   29  C   UNL     1       4.967  25.113  10.867  1.00  0.00     0.012 C 
HETATM   30  C   UNL     1       6.692  26.643   9.873  1.00  0.00     0.012 C 
ENDBRANCH  16  28
BRANCH  14  31
HETATM   31  C   UNL     1       7.033  26.569   4.971  1.00  0.00     0.010 C 
HETATM   32  C   UNL     1       7.981  27.024   6.079  1.00  0.00     0.012 C 
HETATM   33  C   UNL     1       7.809  25.879   3.852  1.00  0.00     0.012 C 
ENDBRANCH  14  31
BRANCH  13  34
HETATM   34  C   UNL     1       0.385  24.661  11.035  1.00  0.00     0.010 C 
HETATM   35  C   UNL     1       1.405  24.528  12.165  1.00  0.00     0.012 C 
HETATM   36  C   UNL     1      -0.625  23.517  11.090  1.00  0.00     0.012 C 
ENDBRANCH  13  34
BRANCH  18  37
HETATM   37  C   UNL     1       3.145  21.743   4.213  1.00  0.00     0.016 C 
HETATM   38  C   UNL     1       2.651  21.011   2.965  1.00  0.00     0.012 C 
HETATM   39  C   UNL     1       4.371  21.041   4.795  1.00  0.00     0.012 C 
ENDBRANCH  18  37
BRANCH  17  40
HETATM   40  C   UNL     1      -2.197  26.441   7.421  1.00  0.00     0.016 C 
HETATM   41  C   UNL     1      -3.107  27.200   6.458  1.00  0.00     0.012 C 
HETATM   42  C   UNL     1      -2.147  27.141   8.777  1.00  0.00     0.012 C 
ENDBRANCH  17  40
BRANCH  15  43
HETATM   43  C   UNL     1      -0.159  25.838   2.199  1.00  0.00     0.010 C 
HETATM   44  C   UNL     1      -1.594  26.347   2.302  1.00  0.00     0.012 C 
HETATM   45  C   UNL     1       0.826  27.003   2.173  1.00  0.00     0.012 C 
ENDBRANCH  15  43
TORSDOF 6
ENDMDL
MODEL 3
REMARK VINA RESULT:    -6.558      1.129      1.359
REMARK INTER + INTRA:          -2.226
REMARK INTER:                  -5.585
REMARK INTRA:                   3.359
REMARK UNBOUND:                 6.632
REMARK  6 active torsions:
REMARK  status: ('A' for Active; 'I' for Inactive)
REMARK    1  A    between atoms: C_13  and  C_16 
REMARK    2  A    between atoms: C_14  and  C_17 
REMARK    3  A    between atoms: C_15  and  C_18 
REMARK    4  A    between atoms: C_19  and  C_22 
REMARK    5  A    between atoms: C_20  and  C_23 
REMARK    6  A    between atoms: C_21  and  C_24 
ROOT
HETATM    1  O   UNL     1       3.010  25.633   9.654  1.00  0.00    -0.304 OA
HETATM    2  O   UNL     1      -1.678  25.503   7.466  1.00  0.00    -0.304 OA
HETATM    3  O   UNL     1       2.002  24.647   4.623  1.00  0.00    -0.304 OA
HETATM    4  O   UNL     1       1.283  23.894   8.811  1.00  0.00    -0.270 OA
HETATM    5  O   UNL     1       3.612  23.395   7.080  1.00  0.00    -0.270 OA
HETATM    6  O   UNL     1      -2.092  24.619   4.375  1.00  0.00    -0.270 OA
HETATM    7  O   UNL     1       2.491  27.196   8.040  1.00  0.00    -0.263 OA
HETATM    8  O   UNL     1      -2.557  23.417   7.045  1.00  0.00    -0.263 OA
HETATM    9  O   UNL     1       2.277  24.725   2.345  1.00  0.00    -0.263 OA
HETATM   10  N   UNL     1      -0.596  24.843   9.770  1.00  0.00    -0.340 N 
HETATM   11  N   UNL     1       4.203  25.555   6.472  1.00  0.00    -0.340 N 
HETATM   12  N   UNL     1      -0.280  26.057   4.624  1.00  0.00    -0.340 N 
HETATM   13  C   UNL     1      -1.456  23.810   9.154  1.00  0.00     0.190 C 
HETATM   14  C   UNL     1       4.536  25.887   7.873  1.00  0.00     0.190 C 
HETATM   15  C   UNL     1       0.287  25.702   3.306  1.00  0.00     0.190 C 
HETATM   16  C   UNL     1       1.702  25.753  10.257  1.00  0.00     0.227 C 
HETATM   17  C   UNL     1      -2.178  26.105   6.259  1.00  0.00     0.227 C 
HETATM   18  C   UNL     1       3.257  23.958   4.783  1.00  0.00     0.227 C 
HETATM   19  C   UNL     1       0.785  24.754   9.547  1.00  0.00     0.250 C 
HETATM   20  C   UNL     1       3.705  24.266   6.209  1.00  0.00     0.250 C 
HETATM   21  C   UNL     1      -1.519  25.513   5.005  1.00  0.00     0.250 C 
HETATM   22  C   UNL     1       3.235  26.345   8.510  1.00  0.00     0.283 C 
HETATM   23  C   UNL     1      -1.949  24.204   7.763  1.00  0.00     0.283 C 
HETATM   24  C   UNL     1       1.635  24.987   3.357  1.00  0.00     0.283 C 
HETATM   25  C   UNL     1      -1.247  25.907  10.538  1.00  0.00     0.153 C 
HETATM   26  C   UNL     1       4.379  26.601   5.461  1.00  0.00     0.153 C 
HETATM   27  C   UNL     1       0.397  27.104   5.392  1.00  0.00     0.153 C 
ENDROOT
BRANCH  16  28
HETATM   28  C   UNL     1       1.859  25.390  11.726  1.00  0.00     0.016 C 
HETATM   29  C   UNL     1       3.018  24.413  11.919  1.00  0.00     0.012 C 
HETATM   30  C   UNL     1       2.071  26.644  12.573  1.00  0.00     0.012 C 
ENDBRANCH  16  28
BRANCH  14  31
HETATM   31  C   UNL     1       5.618  26.940   8.071  1.00  0.00     0.010 C 
HETATM   32  C   UNL     1       6.099  26.951   9.520  1.00  0.00     0.012 C 
HETATM   33  C   UNL     1       6.787  26.695   7.120  1.00  0.00     0.012 C 
ENDBRANCH  14  31
BRANCH  13  34
HETATM   34  C   UNL     1      -2.643  23.398  10.024  1.00  0.00     0.010 C 
HETATM   35  C   UNL     1      -3.866  24.259   9.708  1.00  0.00     0.012 C 
HETATM   36  C   UNL     1      -2.288  23.497  11.506  1.00  0.00     0.012 C 
ENDBRANCH  13  34
BRANCH  18  37
HETATM   37  C   UNL     1       3.024  22.464   4.575  1.00  0.00     0.016 C 
HETATM   38  C   UNL     1       2.275  22.213   3.266  1.00  0.00     0.012 C 
HETATM   39  C   UNL     1       4.348  21.704   4.588  1.00  0.00     0.012 C 
ENDBRANCH  18  37
BRANCH  17  40
HETATM   40  C   UNL     1      -3.705  26.068   6.197  1.00  0.00     0.016 C 
HETATM   41  C   UNL     1      -4.206  26.706   4.903  1.00  0.00     0.012 C 
HETATM   42  C   UNL     1      -4.310  26.769   7.411  1.00  0.00     0.012 C 
ENDBRANCH  17  40
BRANCH  15  43
HETATM   43  C   UNL     1       0.362  26.921   2.386  1.00  0.00     0.010 C 
HETATM   44  C   UNL     1       1.808  27.197   1.983  1.00  0.00     0.012 C 
HETATM   45  C   UNL     1      -0.511  26.714   1.153  1.00  0.00     0.012 C 
ENDBRANCH  15  43
TORSDOF 6
ENDMDL
