REMARK  4 active torsions:
REMARK  status: ('A' for Active; 'I' for Inactive)
REMARK    1  A    between atoms: C_18  and  C_19 
REMARK    2  A    between atoms: C_24  and  C_27 
REMARK    3  A    between atoms: O_34  and  C_39 
REMARK    4  A    between atoms: C_37  and  C_39 
ROOT
HETATM    1 CL   UNK A   1      -6.385  -0.169   1.205  1.00  0.00    -0.121 Cl
HETATM    2 CL   UNK A   1      -5.007  -1.452  -1.477  1.00  0.00    -0.122 Cl
HETATM    3  O   UNK A   1      -3.454  -0.242   2.352  1.00  0.00    -0.271 OA
HETATM    4  O   UNK A   1      -1.842   2.500  -2.207  1.00  0.00    -0.271 OA
HETATM    5  N   UNK A   1      -3.399   1.486  -0.845  1.00  0.00    -0.334 N 
HETATM    6  N   UNK A   1      -0.054   2.519  -0.143  1.00  0.00    -0.348 N 
HETATM    7  C   UNK A   1      -4.008   1.135   0.450  1.00  0.00     0.199 C 
HETATM    8  C   UNK A   1      -5.466   0.829   0.069  1.00  0.00     0.134 C 
HETATM    9  C   UNK A   1      -5.399   0.286  -1.365  1.00  0.00     0.121 C 
HETATM   10  C   UNK A   1      -4.270   1.119  -1.964  1.00  0.00     0.148 C 
HETATM   11  C   UNK A   1      -3.260  -0.006   1.159  1.00  0.00     0.242 C 
HETATM   12  C   UNK A   1      -2.237   2.213  -1.072  1.00  0.00     0.243 C 
HETATM   13  C   UNK A   1      -1.469   2.694   0.156  1.00  0.00     0.172 C 
HETATM   14  C   UNK A   1      -1.787   4.157   0.428  1.00  0.00     0.042 C 
HETATM   15  H   UNK A   1       0.308   2.948  -0.991  1.00  0.00     0.163 HD
HETATM   16  O   UNK A   2      -0.401  -1.518  -1.244  1.00  0.00    -0.271 OA
HETATM   17  N   UNK A   2      -2.422  -0.749   0.349  1.00  0.00    -0.346 N 
HETATM   18  C   UNK A   2      -1.596  -1.843   0.834  1.00  0.00     0.176 C 
HETATM   19  C   UNK A   2      -0.385  -1.931  -0.086  1.00  0.00     0.241 C 
HETATM   20  H   UNK A   2      -2.382  -0.525  -0.641  1.00  0.00     0.163 HD
HETATM   21  O   UNK A   0       0.479   1.194   1.688  1.00  0.00    -0.274 OA
HETATM   22  C   UNK A   0       3.155   0.782   0.852  1.00  0.00     0.126 C 
HETATM   23  C   UNK A   0       2.210   1.718   0.071  1.00  0.00     0.132 C 
HETATM   24  C   UNK A   0       0.799   1.760   0.646  1.00  0.00     0.220 C 
HETATM   25  O   UNK A   3       3.130  -1.078  -1.442  1.00  0.00    -0.271 OA
HETATM   26  N   UNK A   3       0.702  -2.536   0.532  1.00  0.00    -0.344 N 
HETATM   27  N   UNK A   3       2.689  -0.608   0.791  1.00  0.00    -0.350 N 
HETATM   28  C   UNK A   3       1.995  -2.749  -0.111  1.00  0.00     0.200 C 
HETATM   29  C   UNK A   3       2.641  -1.386  -0.358  1.00  0.00     0.243 C 
HETATM   30  H   UNK A   3       0.601  -2.864   1.488  1.00  0.00     0.163 HD
HETATM   31  H   UNK A   3       2.296  -0.993   1.645  1.00  0.00     0.163 HD
ENDROOT
BRANCH  22  32
HETATM   32  C   UNK A   0       4.631   0.891   0.505  1.00  0.00    -0.035 A 
HETATM   33  C   UNK A   0       5.596   0.622   1.476  1.00  0.00     0.009 A 
HETATM   34  C   UNK A   0       6.951   0.722   1.158  1.00  0.00     0.001 A 
HETATM   35  C   UNK A   0       7.340   1.090  -0.130  1.00  0.00     0.000 A 
HETATM   36  C   UNK A   0       6.374   1.358  -1.101  1.00  0.00     0.001 A 
HETATM   37  C   UNK A   0       5.019   1.258  -0.782  1.00  0.00     0.009 A 
ENDBRANCH  22  32
BRANCH  28  38
HETATM   38  C   UNK A   3       1.907  -3.613  -1.361  1.00  0.00     0.199 C 
BRANCH  38  39
HETATM   39  O   UNK A   3       3.173  -4.206  -1.593  1.00  0.00    -0.398 OA
HETATM   40  H   UNK A   3       3.370  -4.789  -0.840  1.00  0.00     0.209 HD
ENDBRANCH  38  39
ENDBRANCH  28  38
BRANCH  18  41
HETATM   41  C   UNK A   2      -2.361  -3.159   0.836  1.00  0.00     0.030 C 
HETATM   42  C   UNK A   2      -3.591  -3.088   1.724  1.00  0.00     0.007 C 
ENDBRANCH  18  41
TORSDOF 4
