145720577
  -OEChem-08242509353D

 69 71  0     1  0  0  0  0  0999 V2000
   -3.6463   -4.0626   -0.2363 Cl  0  0  0  0  0  0  0  0  0  0  0  0
   -1.1324   -1.8024   -1.3473 O   0  0  0  0  0  0  0  0  0  0  0  0
   -3.1082    2.1617   -0.4796 O   0  0  0  0  0  0  0  0  0  0  0  0
   -3.6437    2.8665    2.2492 O   0  0  0  0  0  0  0  0  0  0  0  0
    1.7196   -1.8676   -1.0575 O   0  0  0  0  0  0  0  0  0  0  0  0
    0.2457    1.3962    3.1103 O   0  0  0  0  0  0  0  0  0  0  0  0
    4.3235    0.9863   -0.5213 O   0  0  0  0  0  0  0  0  0  0  0  0
    6.0644   -1.3761    0.2006 O   0  0  0  0  0  0  0  0  0  0  0  0
   -3.1780   -0.1346   -0.3189 N   0  0  0  0  0  0  0  0  0  0  0  0
   -0.6893   -2.3285    0.8704 N   0  0  0  0  0  0  0  0  0  0  0  0
   -1.0469    2.1820    1.3493 N   0  0  0  0  0  0  0  0  0  0  0  0
    2.5494   -1.6841    1.1015 N   0  0  0  0  0  0  0  0  0  0  0  0
    2.4475    1.0643    0.8291 N   0  0  0  0  0  0  0  0  0  0  0  0
   -2.8816   -1.4340    0.2980 C   0  0  1  0  0  0  0  0  0  0  0  0
   -3.9992   -2.3296   -0.2539 C   0  0  1  0  0  0  0  0  0  0  0  0
   -4.2307   -1.7915   -1.6640 C   0  0  0  0  0  0  0  0  0  0  0  0
   -4.0452   -0.2902   -1.4846 C   0  0  0  0  0  0  0  0  0  0  0  0
   -1.4788   -1.8557   -0.1689 C   0  0  0  0  0  0  0  0  0  0  0  0
   -2.8252    1.1282    0.1347 C   0  0  0  0  0  0  0  0  0  0  0  0
   -2.1124    1.2032    1.4808 C   0  0  2  0  0  0  0  0  0  0  0  0
    0.5722   -3.0481    0.7152 C   0  0  1  0  0  0  0  0  0  0  0  0
   -3.1046    1.5958    2.5669 C   0  0  0  0  0  0  0  0  0  0  0  0
    0.4156   -4.3163   -0.1194 C   0  0  0  0  0  0  0  0  0  0  0  0
    1.6666   -2.1522    0.1375 C   0  0  0  0  0  0  0  0  0  0  0  0
    2.0208    2.4279    0.5032 C   0  0  2  0  0  0  0  0  0  0  0  0
    1.1993    3.0466    1.6530 C   0  0  0  0  0  0  0  0  0  0  0  0
    0.0873    2.1355    2.1399 C   0  0  0  0  0  0  0  0  0  0  0  0
    3.7879   -0.9661    0.8055 C   0  0  2  0  0  0  0  0  0  0  0  0
    1.7226   -5.0828   -0.2219 C   0  0  0  0  0  0  0  0  0  0  0  0
    3.5381    0.4372    0.2501 C   0  0  0  0  0  0  0  0  0  0  0  0
    1.3169    2.5236   -0.8414 C   0  0  0  0  0  0  0  0  0  0  0  0
    4.7335   -1.7785   -0.0725 C   0  0  0  0  0  0  0  0  0  0  0  0
    0.4680    1.4986   -1.2591 C   0  0  0  0  0  0  0  0  0  0  0  0
    1.5203    3.6366   -1.6572 C   0  0  0  0  0  0  0  0  0  0  0  0
   -0.1775    1.5866   -2.4926 C   0  0  0  0  0  0  0  0  0  0  0  0
    0.8749    3.7246   -2.8905 C   0  0  0  0  0  0  0  0  0  0  0  0
    0.0259    2.6996   -3.3082 C   0  0  0  0  0  0  0  0  0  0  0  0
   -2.9407   -1.3704    1.3879 H   0  0  0  0  0  0  0  0  0  0  0  0
   -4.9104   -2.1770    0.3379 H   0  0  0  0  0  0  0  0  0  0  0  0
   -5.2218   -2.0393   -2.0563 H   0  0  0  0  0  0  0  0  0  0  0  0
   -3.4882   -2.1796   -2.3710 H   0  0  0  0  0  0  0  0  0  0  0  0
   -3.5928    0.1886   -2.3584 H   0  0  0  0  0  0  0  0  0  0  0  0
   -4.9963    0.2083   -1.2663 H   0  0  0  0  0  0  0  0  0  0  0  0
   -1.6405    0.2568    1.7462 H   0  0  0  0  0  0  0  0  0  0  0  0
   -1.0662   -2.2910    1.8127 H   0  0  0  0  0  0  0  0  0  0  0  0
    0.8568   -3.3469    1.7320 H   0  0  0  0  0  0  0  0  0  0  0  0
   -3.9255    0.8740    2.6285 H   0  0  0  0  0  0  0  0  0  0  0  0
   -2.6149    1.6624    3.5436 H   0  0  0  0  0  0  0  0  0  0  0  0
   -1.1231    2.8931    0.6274 H   0  0  0  0  0  0  0  0  0  0  0  0
   -0.3460   -4.9613    0.3356 H   0  0  0  0  0  0  0  0  0  0  0  0
    0.0658   -4.0889   -1.1328 H   0  0  0  0  0  0  0  0  0  0  0  0
    2.9490    3.0097    0.4184 H   0  0  0  0  0  0  0  0  0  0  0  0
    0.7800    4.0182    1.3660 H   0  0  0  0  0  0  0  0  0  0  0  0
    1.8574    3.2268    2.5128 H   0  0  0  0  0  0  0  0  0  0  0  0
    4.2572   -0.8040    1.7856 H   0  0  0  0  0  0  0  0  0  0  0  0
    2.3881   -1.9311    2.0733 H   0  0  0  0  0  0  0  0  0  0  0  0
    1.8660    0.5173    1.4571 H   0  0  0  0  0  0  0  0  0  0  0  0
    2.4798   -4.5328   -0.7885 H   0  0  0  0  0  0  0  0  0  0  0  0
    1.5566   -6.0339   -0.7385 H   0  0  0  0  0  0  0  0  0  0  0  0
    2.1280   -5.3079    0.7699 H   0  0  0  0  0  0  0  0  0  0  0  0
    4.5375   -1.6297   -1.1391 H   0  0  0  0  0  0  0  0  0  0  0  0
    4.6601   -2.8511    0.1376 H   0  0  0  0  0  0  0  0  0  0  0  0
   -4.2739    3.0948    2.9536 H   0  0  0  0  0  0  0  0  0  0  0  0
    0.2946    0.6222   -0.6430 H   0  0  0  0  0  0  0  0  0  0  0  0
    2.1771    4.4431   -1.3426 H   0  0  0  0  0  0  0  0  0  0  0  0
   -0.8391    0.7891   -2.8177 H   0  0  0  0  0  0  0  0  0  0  0  0
    1.0326    4.5915   -3.5254 H   0  0  0  0  0  0  0  0  0  0  0  0
    6.2587   -1.6013    1.1264 H   0  0  0  0  0  0  0  0  0  0  0  0
   -0.4771    2.7683   -4.2683 H   0  0  0  0  0  0  0  0  0  0  0  0
  1 15  1  0  0  0  0
  2 18  2  0  0  0  0
  3 19  2  0  0  0  0
  4 22  1  0  0  0  0
  4 63  1  0  0  0  0
  5 24  2  0  0  0  0
  6 27  2  0  0  0  0
  7 30  2  0  0  0  0
  8 32  1  0  0  0  0
  8 68  1  0  0  0  0
  9 14  1  0  0  0  0
  9 17  1  0  0  0  0
  9 19  1  0  0  0  0
 10 18  1  0  0  0  0
 10 21  1  0  0  0  0
 10 45  1  0  0  0  0
 11 20  1  0  0  0  0
 11 27  1  0  0  0  0
 11 49  1  0  0  0  0
 12 24  1  0  0  0  0
 12 28  1  0  0  0  0
 12 56  1  0  0  0  0
 13 25  1  0  0  0  0
 13 30  1  0  0  0  0
 13 57  1  0  0  0  0
 14 15  1  0  0  0  0
 14 18  1  0  0  0  0
 14 38  1  0  0  0  0
 15 16  1  0  0  0  0
 15 39  1  0  0  0  0
 16 17  1  0  0  0  0
 16 40  1  0  0  0  0
 16 41  1  0  0  0  0
 17 42  1  0  0  0  0
 17 43  1  0  0  0  0
 19 20  1  0  0  0  0
 20 22  1  0  0  0  0
 20 44  1  0  0  0  0
 21 23  1  0  0  0  0
 21 24  1  0  0  0  0
 21 46  1  0  0  0  0
 22 47  1  0  0  0  0
 22 48  1  0  0  0  0
 23 29  1  0  0  0  0
 23 50  1  0  0  0  0
 23 51  1  0  0  0  0
 25 26  1  0  0  0  0
 25 31  1  0  0  0  0
 25 52  1  0  0  0  0
 26 27  1  0  0  0  0
 26 53  1  0  0  0  0
 26 54  1  0  0  0  0
 28 30  1  0  0  0  0
 28 32  1  0  0  0  0
 28 55  1  0  0  0  0
 29 58  1  0  0  0  0
 29 59  1  0  0  0  0
 29 60  1  0  0  0  0
 31 33  2  0  0  0  0
 31 34  1  0  0  0  0
 32 61  1  0  0  0  0
 32 62  1  0  0  0  0
 33 35  1  0  0  0  0
 33 64  1  0  0  0  0
 34 36  2  0  0  0  0
 34 65  1  0  0  0  0
 35 37  2  0  0  0  0
 35 66  1  0  0  0  0
 36 37  1  0  0  0  0
 36 67  1  0  0  0  0
 37 69  1  0  0  0  0
M  END
> <PUBCHEM_COMPOUND_CID>
145720577

> <PUBCHEM_CONFORMER_RMSD>
1

> <PUBCHEM_CONFORMER_DIVERSEORDER>
2
5
13
9
4
6
8
1
10
12
3
14
11
7

> <PUBCHEM_MMFF94_PARTIAL_CHARGES>
45
1 -0.29
10 -0.73
11 -0.73
12 -0.73
13 -0.73
14 0.36
15 0.29
17 0.3
18 0.57
19 0.57
2 -0.57
20 0.36
21 0.36
22 0.28
24 0.57
25 0.44
26 0.06
27 0.57
28 0.36
3 -0.57
30 0.57
31 -0.14
32 0.28
33 -0.15
34 -0.15
35 -0.15
36 -0.15
37 -0.15
4 -0.68
45 0.37
49 0.37
5 -0.57
56 0.37
57 0.37
6 -0.57
63 0.4
64 0.15
65 0.15
66 0.15
67 0.15
68 0.4
69 0.15
7 -0.57
8 -0.68
9 -0.66

> <PUBCHEM_EFFECTIVE_ROTOR_COUNT>
6.4

> <PUBCHEM_PHARMACOPHORE_FEATURES>
16
1 10 donor
1 11 donor
1 12 donor
1 13 donor
1 2 acceptor
1 29 hydrophobe
1 3 acceptor
1 4 acceptor
1 4 donor
1 5 acceptor
1 6 acceptor
1 7 acceptor
1 8 acceptor
1 8 donor
5 9 14 15 16 17 rings
6 31 33 34 35 36 37 rings

> <PUBCHEM_HEAVY_ATOM_COUNT>
37

> <PUBCHEM_ATOM_DEF_STEREO_COUNT>
6

> <PUBCHEM_ATOM_UDEF_STEREO_COUNT>
0

> <PUBCHEM_BOND_DEF_STEREO_COUNT>
0

> <PUBCHEM_BOND_UDEF_STEREO_COUNT>
0

> <PUBCHEM_ISOTOPIC_ATOM_COUNT>
0

> <PUBCHEM_COMPONENT_COUNT>
1

> <PUBCHEM_CACTVS_TAUTO_COUNT>
-1

> <PUBCHEM_CONFORMER_ID>
08AF850100000002

> <PUBCHEM_MMFF94_ENERGY>
98.6158

> <PUBCHEM_FEATURE_SELFOVERLAP>
81.217

> <PUBCHEM_SHAPE_FINGERPRINT>
10708813 3 18408887347257594460
11513181 2 18059870458354509270
12156800 1 8089114617812778376
12166972 35 18335699506938094527
12788726 201 17696783277705341025
133893 2 18042706055004505901
13615921 28 17917698119935404669
14068700 675 18200576082215248175
14840074 17 18044118786086947036
18336668 15 18410575084942868448
20600515 1 18339935843951567710
20764821 26 16465289761338605591
20775438 99 17182715180277165871
23559900 14 18191008200955338735
25265897 201 17199697098391621919
3380486 145 18045504118886951613
35225 105 16971680209334795189
463206 1 18342742892573592409
469060 322 18260825939488873426
57527585 103 17896910714399007235

> <PUBCHEM_SHAPE_MULTIPOLES>
697.32
7.73
6.27
2.65
0.2
4.15
0.12
4.18
0.43
1.29
0.99
-0.51
-3.81
-2.17

> <PUBCHEM_SHAPE_SELFOVERLAP>
1445.667

> <PUBCHEM_SHAPE_VOLUME>
392.1

> <PUBCHEM_COORDINATE_TYPE>
2
5
10

$$$$
