REMARK  7 active torsions:
REMARK  status: ('A' for Active; 'I' for Inactive)
REMARK    1  A    between atoms: O_3  and  C_13 
REMARK    2  A    between atoms: O_6  and  C_22 
REMARK    3  A    between atoms: N_8  and  CA_17 
REMARK       I    between atoms: N_8  and  C_31 
REMARK    4  A    between atoms: C_14  and  C_31 
REMARK    5  A    between atoms: CA_17  and  CB_20 
REMARK    6  A    between atoms: CA_17  and  C_22 
REMARK    7  A    between atoms: CB_20  and  CG_21 
ROOT
HETATM    1 CL   UNL     1      -2.572   2.876  -2.099  1.00  0.00    -0.084 Cl
HETATM    2  O   UNL     1      -4.953  -1.185   0.439  1.00  0.00    -0.312 OA
HETATM    3  O   UNL     1      -3.263  -2.409   1.320  1.00  0.00    -0.259 OA
HETATM    4  C   UNL     1      -4.501   0.660  -1.075  1.00  0.00     0.073 C 
HETATM    5  C   UNL     1      -5.409   0.121   0.021  1.00  0.00     0.132 C 
HETATM    6  C   UNL     1      -3.101   0.673  -0.541  1.00  0.00    -0.015 A 
HETATM    7  C   UNL     1      -2.699  -0.324   0.356  1.00  0.00     0.081 A 
HETATM    8  C   UNL     1      -1.390  -0.344   0.848  1.00  0.00     0.098 A 
HETATM    9  C   UNL     1      -0.482   0.633   0.441  1.00  0.00     0.067 A 
HETATM   10  C   UNL     1      -2.178   1.639  -0.956  1.00  0.00     0.042 A 
HETATM   11  C   UNL     1      -3.647  -1.392   0.758  1.00  0.00     0.297 C 
HETATM   12  C   UNL     1      -6.843  -0.027  -0.469  1.00  0.00     0.040 C 
HETATM   13  C   UNL     1      -0.874   1.621  -0.461  1.00  0.00     0.044 A 
ENDROOT
BRANCH   9  14
HETATM   14  C   ACE A   0       0.887   0.641   0.940  1.00  0.00     0.255 C 
HETATM   15  O   UNL     1       1.149   0.186   2.066  1.00  0.00    -0.268 OA
HETATM   16  N   UNL     1       1.868   1.158   0.087  1.00  0.00    -0.342 N 
HETATM   17  H   UNL     1       1.617   1.494  -0.837  1.00  0.00     0.163 HD
BRANCH  16  18
HETATM   18  CA  UNL     1       3.272   1.212   0.428  1.00  0.00     0.186 C 
BRANCH  18  19
HETATM   19  CB  UNL     1       4.118   0.433  -0.588  1.00  0.00     0.074 C 
BRANCH  19  20
HETATM   20  CG  UNL     1       3.716  -1.018  -0.699  1.00  0.00    -0.056 A 
HETATM   21  CD1 UNL     1       4.320  -1.955   0.125  1.00  0.00     0.007 A 
HETATM   22  CE1 UNL     1       3.948  -3.296   0.022  1.00  0.00     0.001 A 
HETATM   23  CZ  UNL     1       2.978  -3.682  -0.902  1.00  0.00     0.000 A 
HETATM   24  CE2 UNL     1       2.378  -2.727  -1.724  1.00  0.00     0.001 A 
HETATM   25  CD2 UNL     1       2.750  -1.387  -1.622  1.00  0.00     0.007 A 
ENDBRANCH  19  20
ENDBRANCH  18  19
BRANCH  18  26
HETATM   26  C   UNL     1       3.760   2.651   0.515  1.00  0.00     0.163 C 
HETATM   27  OXT UNL     1       4.895   2.950   0.869  1.00  0.00    -0.648 OA
BRANCH  26  28
HETATM   28  O   UNL     1       2.843   3.585   0.164  1.00  0.00    -0.775 OA
HETATM   29  H   UNL     1       3.203   4.495   0.232  1.00  0.00     0.167 HD
ENDBRANCH  26  28
ENDBRANCH  18  26
ENDBRANCH  16  18
ENDBRANCH   9  14
BRANCH   8  30
HETATM   30  O   UNL     1      -0.970  -1.292   1.736  1.00  0.00    -0.359 OA
HETATM   31  H   UNL     1      -1.723  -1.804   2.070  1.00  0.00     0.217 HD
ENDBRANCH   8  30
TORSDOF 7
