# Name: EHF
# Created by ModelServer 0.9.12

# model_server_result.job_id: _FWEvYS2usYT8GgrJjfHPg
# model_server_result.datetime_utc: 2025-08-24 19:23:04
# model_server_result.server_version: 0.9.12
# model_server_result.query_name: ligand
# model_server_result.source_id: pdb-bcif
# model_server_result.entry_id: 4l9k

# model_server_params.name: atom_site
# model_server_params.value: {"label_asym_id":"C","auth_seq_id":601}

# model_server_stats.io_time_ms: 10
# model_server_stats.parse_time_ms: 7
# model_server_stats.create_model_time_ms: 7
# model_server_stats.query_time_ms: 256
# model_server_stats.encode_time_ms: 0
# model_server_stats.element_count: 27

@<TRIPOS>MOLECULE
EHF
27 30 1
****
****

@<TRIPOS>ATOM
1 C1 -4.370 -6.837 4.476 C.ar 1 EHF 0.000
2 C2 -4.382 -8.119 5.042 C.ar 1 EHF 0.000
3 C3 -5.370 -8.411 5.972 C.ar 1 EHF 0.000
4 C4 -6.327 -7.410 6.341 C.ar 1 EHF 0.000
5 C5 -6.302 -6.137 5.783 C.ar 1 EHF 0.000
6 C6 -5.293 -5.845 4.844 C.ar 1 EHF 0.000
7 N7 -7.271 -7.732 7.248 N.ar 1 EHF 0.000
8 C8 -8.196 -6.833 7.637 C.ar 1 EHF 0.000
9 C9 -8.264 -5.514 7.149 C.ar 1 EHF 0.000
10 C10 -7.281 -5.125 6.185 C.ar 1 EHF 0.000
11 C11 -9.279 -6.965 8.568 C.2 1 EHF 0.000
12 N12 -9.941 -5.844 8.647 N.am 1 EHF 0.000
13 C13 -9.388 -4.915 7.815 C.3 1 EHF 0.000
14 C14 -9.608 -8.130 9.296 C.2 1 EHF 0.000
15 C15 -10.680 -8.110 10.159 C.2 1 EHF 0.000
16 C16 -11.383 -6.872 10.232 C.2 1 EHF 0.000
17 C17 -10.996 -5.759 9.480 C.2 1 EHF 0.000
18 O18 -11.701 -4.560 9.572 O.2 1 EHF 0.000
19 C19 -12.583 -6.744 11.174 C.3 1 EHF 0.000
20 C20 -11.049 -9.387 10.949 C.3 1 EHF 0.000
21 C21 -10.695 -9.182 12.415 C.2 1 EHF 0.000
22 O22 -11.530 -9.472 13.332 O.3 1 EHF 0.000
23 O23 -9.572 -8.722 12.709 O.2 1 EHF 0.000
24 O24 -12.407 -9.689 10.714 O.3 1 EHF 0.000
25 C25 -10.261 -10.580 10.458 C.3 1 EHF 0.000
26 C26 -11.020 -11.454 9.476 C.3 1 EHF 0.000
27 O27 -12.061 -6.043 12.322 O.3 1 EHF 0.000
@<TRIPOS>BOND
1 1 6 ar
2 1 2 ar
3 2 3 ar
4 3 4 ar
5 4 5 ar
6 4 7 ar
7 5 6 ar
8 5 10 ar
9 7 8 ar
10 8 9 ar
11 8 11 1
12 9 10 ar
13 9 13 1
14 11 12 1
15 11 14 2
16 12 13 1
17 12 17 1
18 14 15 1
19 15 16 2
20 15 20 1
21 16 17 1
22 16 19 1
23 17 18 2
24 19 27 1
25 20 25 1
26 20 24 1
27 20 21 1
28 21 23 2
29 21 22 1
30 25 26 1
@<TRIPOS>SUBSTRUCTURE
1 EHF 1
