REMARK  7 active torsions:
REMARK  status: ('A' for Active; 'I' for Inactive)
REMARK    1  A    between atoms: C_13  and  C_14 
REMARK    2  A    between atoms: C_14  and  C_19 
REMARK    3  A    between atoms: C_15  and  C_20 
REMARK    4  A    between atoms: C_16  and  C_21 
REMARK    5  A    between atoms: C_17  and  C_23 
REMARK    6  A    between atoms: C_18  and  C_26 
REMARK    7  A    between atoms: C_22  and  C_28 
ROOT
HETATM    1  O   UNL     1       2.346  -2.273   0.469  1.00  0.00    -0.304 OA
HETATM    2  O   UNL     1       0.486   2.419  -0.879  1.00  0.00    -0.304 OA
HETATM    3  O   UNL     1      -2.617  -0.816   0.621  1.00  0.00    -0.304 OA
HETATM    4  O   UNL     1       2.342   0.100  -2.054  1.00  0.00    -0.270 OA
HETATM    5  O   UNL     1       1.725  -0.590   1.918  1.00  0.00    -0.263 OA
HETATM    6  O   UNL     1       0.362  -1.886  -1.153  1.00  0.00    -0.270 OA
HETATM    7  O   UNL     1      -3.582   2.067  -0.504  1.00  0.00    -0.270 OA
HETATM    8  O   UNL     1       0.411   4.709  -1.048  1.00  0.00    -0.263 OA
HETATM    9  O   UNL     1      -3.732  -0.757  -1.392  1.00  0.00    -0.263 OA
HETATM   10  N   UNL     1       3.020   1.020  -0.034  1.00  0.00    -0.340 N 
HETATM   11  N   UNL     1      -1.254  -2.997   0.074  1.00  0.00    -0.340 N 
HETATM   12  N   UNL     1      -1.633   2.242   0.754  1.00  0.00    -0.340 N 
HETATM   13  C   UNL     1       3.594  -0.273   0.392  1.00  0.00     0.190 C 
HETATM   14  C   UNL     1      -2.287  -2.629  -0.918  1.00  0.00     0.190 C 
HETATM   15  C   UNL     1      -1.311   3.581   0.218  1.00  0.00     0.190 C 
HETATM   16  C   UNL     1       1.685   2.369  -1.677  1.00  0.00     0.227 C 
HETATM   17  C   UNL     1       1.164  -3.042   0.782  1.00  0.00     0.227 C 
HETATM   18  C   UNL     1      -3.244   0.364   1.155  1.00  0.00     0.227 C 
HETATM   19  C   UNL     1       2.375   1.066  -1.283  1.00  0.00     0.250 C 
HETATM   20  C   UNL     1       2.453  -1.038   1.042  1.00  0.00     0.283 C 
HETATM   21  C   UNL     1       0.063  -2.587  -0.180  1.00  0.00     0.250 C 
HETATM   22  C   UNL     1      -2.841   1.628   0.381  1.00  0.00     0.250 C 
HETATM   23  C   UNL     1      -0.041   3.649  -0.626  1.00  0.00     0.283 C 
HETATM   24  C   UNL     1      -2.953  -1.290  -0.609  1.00  0.00     0.283 C 
HETATM   25  C   UNL     1       3.129   2.155   0.888  1.00  0.00     0.153 C 
HETATM   26  C   UNL     1      -1.681  -3.730   1.268  1.00  0.00     0.153 C 
HETATM   27  C   UNL     1      -0.756   1.700   1.793  1.00  0.00     0.153 C 
ENDROOT
BRANCH  17  28
HETATM   28  C   UNL     1       1.514  -4.504   0.545  1.00  0.00     0.016 C 
HETATM   29  C   UNL     1       1.977  -4.721  -0.895  1.00  0.00     0.012 C 
HETATM   30  C   UNL     1       2.588  -4.968   1.528  1.00  0.00     0.012 C 
ENDBRANCH  17  28
BRANCH  13  31
HETATM   31  C   UNL     1       4.784  -0.195   1.342  1.00  0.00     0.014 C 
HETATM   32  C   UNL     1       5.229  -1.605   1.734  1.00  0.00     0.012 C 
BRANCH  31  33
HETATM   33  C   UNL     1       5.920   0.617   0.695  1.00  0.00     0.002 C 
HETATM   34  C   UNL     1       7.179   0.695   1.547  1.00  0.00     0.005 C 
ENDBRANCH  31  33
ENDBRANCH  13  31
BRANCH  14  35
HETATM   35  C   UNL     1      -3.357  -3.702  -1.119  1.00  0.00     0.010 C 
HETATM   36  C   UNL     1      -4.301  -3.317  -2.256  1.00  0.00     0.012 C 
HETATM   37  C   UNL     1      -2.714  -5.061  -1.395  1.00  0.00     0.012 C 
ENDBRANCH  14  35
BRANCH  16  38
HETATM   38  C   UNL     1       1.292   2.376  -3.152  1.00  0.00     0.016 C 
HETATM   39  C   UNL     1       0.303   1.251  -3.452  1.00  0.00     0.012 C 
HETATM   40  C   UNL     1       2.529   2.252  -4.040  1.00  0.00     0.012 C 
ENDBRANCH  16  38
BRANCH  18  41
HETATM   41  C   UNL     1      -4.759   0.200   1.270  1.00  0.00     0.016 C 
HETATM   42  C   UNL     1      -5.378   1.408   1.969  1.00  0.00     0.012 C 
HETATM   43  C   UNL     1      -5.104  -1.087   2.016  1.00  0.00     0.012 C 
ENDBRANCH  18  41
BRANCH  15  44
HETATM   44  C   UNL     1      -1.272   4.630   1.330  1.00  0.00     0.010 C 
HETATM   45  C   UNL     1      -2.526   4.539   2.195  1.00  0.00     0.012 C 
HETATM   46  C   UNL     1      -1.125   6.029   0.739  1.00  0.00     0.012 C 
ENDBRANCH  15  44
TORSDOF 7
