MODEL 1
REMARK VINA RESULT:    -7.268      0.000      0.000
REMARK INTER + INTRA:         -10.344
REMARK INTER:                 -11.053
REMARK INTRA:                   0.709
REMARK UNBOUND:                 0.323
REMARK  8 active torsions:
REMARK  status: ('A' for Active; 'I' for Inactive)
REMARK    1  A    between atoms: C_13  and  C_15 
REMARK    2  A    between atoms: C_14  and  C_16 
REMARK    3  A    between atoms: C_15  and  C_22 
REMARK    4  A    between atoms: C_16  and  C_23 
REMARK    5  A    between atoms: C_17  and  C_21 
REMARK    6  A    between atoms: C_18  and  C_24 
REMARK    7  A    between atoms: C_19  and  C_27 
REMARK    8  A    between atoms: C_20  and  C_30 
ROOT
HETATM    1  O   UNL     1       8.993   0.576   5.332  1.00  0.00    -0.304 OA
HETATM    2  O   UNL     1      10.732   0.266   9.841  1.00  0.00    -0.304 OA
HETATM    3  O   UNL     1       7.571  -2.220   9.323  1.00  0.00    -0.304 OA
HETATM    4  O   UNL     1      10.412  -0.967   6.926  1.00  0.00    -0.270 OA
HETATM    5  O   UNL     1       7.943   1.718   7.041  1.00  0.00    -0.263 OA
HETATM    6  O   UNL     1       7.357  -2.228   6.741  1.00  0.00    -0.270 OA
HETATM    7  O   UNL     1      12.698  -0.219  10.935  1.00  0.00    -0.263 OA
HETATM    8  O   UNL     1      10.666   0.059  13.282  1.00  0.00    -0.270 OA
HETATM    9  O   UNL     1       7.033  -1.765  11.520  1.00  0.00    -0.263 OA
HETATM   10  N   UNL     1      11.971   0.642   7.528  1.00  0.00    -0.340 N 
HETATM   11  N   UNL     1       6.031  -0.325   6.820  1.00  0.00    -0.340 N 
HETATM   12  N   UNL     1       9.747  -1.734  12.135  1.00  0.00    -0.340 N 
HETATM   13  C   UNL     1      12.622  -0.263   8.504  1.00  0.00     0.190 C 
HETATM   14  C   UNL     1       6.674   0.215   5.606  1.00  0.00     0.190 C 
HETATM   15  C   UNL     1      10.278   1.098   5.723  1.00  0.00     0.227 C 
HETATM   16  C   UNL     1       9.311  -2.377  10.877  1.00  0.00     0.190 C 
HETATM   17  C   UNL     1       6.284  -1.792   8.829  1.00  0.00     0.227 C 
HETATM   18  C   UNL     1       9.974   0.526  11.026  1.00  0.00     0.227 C 
HETATM   19  C   UNL     1      10.884   0.166   6.778  1.00  0.00     0.250 C 
HETATM   20  C   UNL     1       7.919   0.941   6.097  1.00  0.00     0.283 C 
HETATM   21  C   UNL     1       6.586  -1.492   7.366  1.00  0.00     0.250 C 
HETATM   22  C   UNL     1      12.059  -0.035   9.907  1.00  0.00     0.283 C 
HETATM   23  C   UNL     1      10.179  -0.402  12.244  1.00  0.00     0.250 C 
HETATM   24  C   UNL     1       7.836  -2.081  10.655  1.00  0.00     0.283 C 
HETATM   25  C   UNL     1      12.478   2.017   7.473  1.00  0.00     0.153 C 
HETATM   26  C   UNL     1       4.964   0.446   7.461  1.00  0.00     0.153 C 
HETATM   27  C   UNL     1       9.728  -2.546  13.352  1.00  0.00     0.153 C 
ENDROOT
BRANCH  15  28
HETATM   28  C   UNL     1      11.150   1.115   4.475  1.00  0.00     0.016 C 
HETATM   29  C   UNL     1      10.492   0.322   3.347  1.00  0.00     0.012 C 
HETATM   30  C   UNL     1      11.427   2.550   4.029  1.00  0.00     0.012 C 
ENDBRANCH  15  28
BRANCH  14  31
HETATM   31  C   UNL     1       5.834   1.154   4.752  1.00  0.00     0.014 C 
HETATM   32  C   UNL     1       6.659   1.647   3.561  1.00  0.00     0.012 C 
BRANCH  31  33
HETATM   33  C   UNL     1       4.540   0.489   4.251  1.00  0.00     0.002 C 
HETATM   34  C   UNL     1       3.324   1.404   4.305  1.00  0.00     0.005 C 
ENDBRANCH  31  33
ENDBRANCH  14  31
BRANCH  13  35
HETATM   35  C   UNL     1      14.147  -0.174   8.491  1.00  0.00     0.014 C 
HETATM   36  C   UNL     1      14.625   0.700   9.653  1.00  0.00     0.012 C 
BRANCH  35  37
HETATM   37  C   UNL     1      14.817  -1.558   8.571  1.00  0.00     0.002 C 
HETATM   38  C   UNL     1      13.908  -2.700   8.141  1.00  0.00     0.005 C 
ENDBRANCH  35  37
ENDBRANCH  13  35
BRANCH  17  39
HETATM   39  C   UNL     1       5.275  -2.919   8.949  1.00  0.00     0.016 C 
HETATM   40  C   UNL     1       4.804  -3.368   7.568  1.00  0.00     0.012 C 
HETATM   41  C   UNL     1       4.087  -2.486   9.806  1.00  0.00     0.012 C 
ENDBRANCH  17  39
BRANCH  18  42
HETATM   42  C   UNL     1      10.190   1.993  11.399  1.00  0.00     0.016 C 
HETATM   43  C   UNL     1      10.522   2.823  10.159  1.00  0.00     0.012 C 
HETATM   44  C   UNL     1       8.959   2.557  12.106  1.00  0.00     0.012 C 
ENDBRANCH  18  42
BRANCH  16  45
HETATM   45  C   UNL     1       9.561  -3.881  10.799  1.00  0.00     0.010 C 
HETATM   46  C   UNL     1      10.431  -4.223   9.590  1.00  0.00     0.012 C 
HETATM   47  C   UNL     1       8.240  -4.647  10.740  1.00  0.00     0.012 C 
ENDBRANCH  16  45
TORSDOF 8
ENDMDL
MODEL 2
REMARK VINA RESULT:    -7.085      1.745      5.192
REMARK INTER + INTRA:         -10.075
REMARK INTER:                 -10.717
REMARK INTRA:                   0.642
REMARK UNBOUND:                 0.323
REMARK  8 active torsions:
REMARK  status: ('A' for Active; 'I' for Inactive)
REMARK    1  A    between atoms: C_13  and  C_15 
REMARK    2  A    between atoms: C_14  and  C_16 
REMARK    3  A    between atoms: C_15  and  C_22 
REMARK    4  A    between atoms: C_16  and  C_23 
REMARK    5  A    between atoms: C_17  and  C_21 
REMARK    6  A    between atoms: C_18  and  C_24 
REMARK    7  A    between atoms: C_19  and  C_27 
REMARK    8  A    between atoms: C_20  and  C_30 
ROOT
HETATM    1  O   UNL     1      12.157   0.090   7.622  1.00  0.00    -0.304 OA
HETATM    2  O   UNL     1       8.422  -1.186  10.428  1.00  0.00    -0.304 OA
HETATM    3  O   UNL     1       7.199  -0.388   6.645  1.00  0.00    -0.304 OA
HETATM    4  O   UNL     1      10.502  -1.896   8.128  1.00  0.00    -0.270 OA
HETATM    5  O   UNL     1      10.791   1.722   8.515  1.00  0.00    -0.263 OA
HETATM    6  O   UNL     1       9.460  -0.375   5.379  1.00  0.00    -0.270 OA
HETATM    7  O   UNL     1       7.739  -2.940  11.752  1.00  0.00    -0.263 OA
HETATM    8  O   UNL     1       5.243  -1.073  11.759  1.00  0.00    -0.270 OA
HETATM    9  O   UNL     1       5.266   0.440   7.595  1.00  0.00    -0.263 OA
HETATM   10  N   UNL     1      10.937  -2.024  10.403  1.00  0.00    -0.340 N 
HETATM   11  N   UNL     1       9.770   1.864   5.904  1.00  0.00    -0.340 N 
HETATM   12  N   UNL     1       5.386  -1.583   9.502  1.00  0.00    -0.340 N 
HETATM   13  C   UNL     1       9.885  -3.047  10.610  1.00  0.00     0.190 C 
HETATM   14  C   UNL     1      11.214   1.649   6.118  1.00  0.00     0.190 C 
HETATM   15  C   UNL     1      12.312  -0.538   8.910  1.00  0.00     0.227 C 
HETATM   16  C   UNL     1       6.170  -1.733   8.258  1.00  0.00     0.190 C 
HETATM   17  C   UNL     1       7.487   0.844   5.950  1.00  0.00     0.227 C 
HETATM   18  C   UNL     1       7.270  -0.372  10.671  1.00  0.00     0.227 C 
HETATM   19  C   UNL     1      11.168  -1.540   9.107  1.00  0.00     0.250 C 
HETATM   20  C   UNL     1      11.345   1.188   7.563  1.00  0.00     0.283 C 
HETATM   21  C   UNL     1       8.983   0.722   5.690  1.00  0.00     0.250 C 
HETATM   22  C   UNL     1       8.574  -2.391  11.044  1.00  0.00     0.283 C 
HETATM   23  C   UNL     1       5.885  -1.055  10.703  1.00  0.00     0.250 C 
HETATM   24  C   UNL     1       6.120  -0.427   7.481  1.00  0.00     0.283 C 
HETATM   25  C   UNL     1      11.617  -1.535  11.607  1.00  0.00     0.153 C 
HETATM   26  C   UNL     1       9.221   3.212   6.069  1.00  0.00     0.153 C 
HETATM   27  C   UNL     1       3.989  -2.020   9.477  1.00  0.00     0.153 C 
ENDROOT
BRANCH  15  28
HETATM   28  C   UNL     1      13.650  -1.266   8.893  1.00  0.00     0.016 C 
HETATM   29  C   UNL     1      13.668  -2.335   7.802  1.00  0.00     0.012 C 
HETATM   30  C   UNL     1      14.798  -0.278   8.694  1.00  0.00     0.012 C 
ENDBRANCH  15  28
BRANCH  14  31
HETATM   31  C   UNL     1      12.123   2.846   5.875  1.00  0.00     0.014 C 
HETATM   32  C   UNL     1      13.232   2.875   6.930  1.00  0.00     0.012 C 
BRANCH  31  33
HETATM   33  C   UNL     1      12.743   2.834   4.466  1.00  0.00     0.002 C 
HETATM   34  C   UNL     1      11.875   2.139   3.425  1.00  0.00     0.005 C 
ENDBRANCH  31  33
ENDBRANCH  14  31
BRANCH  13  35
HETATM   35  C   UNL     1      10.300  -4.159  11.572  1.00  0.00     0.014 C 
HETATM   36  C   UNL     1       9.203  -5.225  11.639  1.00  0.00     0.012 C 
BRANCH  35  37
HETATM   37  C   UNL     1      11.636  -4.812  11.174  1.00  0.00     0.002 C 
HETATM   38  C   UNL     1      11.758  -6.264  11.612  1.00  0.00     0.005 C 
ENDBRANCH  35  37
ENDBRANCH  13  35
BRANCH  17  39
HETATM   39  C   UNL     1       6.718   0.902   4.643  1.00  0.00     0.016 C 
HETATM   40  C   UNL     1       7.668   1.129   3.470  1.00  0.00     0.012 C 
HETATM   41  C   UNL     1       5.656   1.998   4.693  1.00  0.00     0.012 C 
ENDBRANCH  17  39
BRANCH  18  42
HETATM   42  C   UNL     1       7.531   0.424  11.951  1.00  0.00     0.016 C 
HETATM   43  C   UNL     1       8.979   0.912  11.998  1.00  0.00     0.012 C 
HETATM   44  C   UNL     1       6.566   1.603  12.059  1.00  0.00     0.012 C 
ENDBRANCH  18  42
BRANCH  16  45
HETATM   45  C   UNL     1       5.745  -2.892   7.360  1.00  0.00     0.010 C 
HETATM   46  C   UNL     1       6.931  -3.809   7.062  1.00  0.00     0.012 C 
HETATM   47  C   UNL     1       5.132  -2.373   6.060  1.00  0.00     0.012 C 
ENDBRANCH  16  45
TORSDOF 8
ENDMDL
MODEL 3
REMARK VINA RESULT:    -6.857      2.059      6.686
REMARK INTER + INTRA:          -9.741
REMARK INTER:                 -10.725
REMARK INTRA:                   0.984
REMARK UNBOUND:                 0.323
REMARK  8 active torsions:
REMARK  status: ('A' for Active; 'I' for Inactive)
REMARK    1  A    between atoms: C_13  and  C_15 
REMARK    2  A    between atoms: C_14  and  C_16 
REMARK    3  A    between atoms: C_15  and  C_22 
REMARK    4  A    between atoms: C_16  and  C_23 
REMARK    5  A    between atoms: C_17  and  C_21 
REMARK    6  A    between atoms: C_18  and  C_24 
REMARK    7  A    between atoms: C_19  and  C_27 
REMARK    8  A    between atoms: C_20  and  C_30 
ROOT
HETATM    1  O   UNL     1       8.661   1.292   5.747  1.00  0.00    -0.304 OA
HETATM    2  O   UNL     1       6.228  -2.217   8.030  1.00  0.00    -0.304 OA
HETATM    3  O   UNL     1      10.090  -2.084   9.257  1.00  0.00    -0.304 OA
HETATM    4  O   UNL     1       7.566   0.669   8.060  1.00  0.00    -0.270 OA
HETATM    5  O   UNL     1       8.860  -0.891   5.024  1.00  0.00    -0.263 OA
HETATM    6  O   UNL     1      10.834   0.216   8.324  1.00  0.00    -0.270 OA
HETATM    7  O   UNL     1       4.371  -2.485   9.363  1.00  0.00    -0.263 OA
HETATM    8  O   UNL     1       5.633  -5.335   9.378  1.00  0.00    -0.270 OA
HETATM    9  O   UNL     1       9.958  -4.379   9.457  1.00  0.00    -0.263 OA
HETATM   10  N   UNL     1       5.455   0.188   7.228  1.00  0.00    -0.340 N 
HETATM   11  N   UNL     1      11.365  -0.757   6.285  1.00  0.00    -0.340 N 
HETATM   12  N   UNL     1       7.340  -4.109  10.358  1.00  0.00    -0.340 N 
HETATM   13  C   UNL     1       4.970  -0.271   8.551  1.00  0.00     0.190 C 
HETATM   14  C   UNL     1      10.847   0.416   5.552  1.00  0.00     0.190 C 
HETATM   15  C   UNL     1       7.223   1.199   5.751  1.00  0.00     0.227 C 
HETATM   16  C   UNL     1       8.227  -2.928  10.392  1.00  0.00     0.190 C 
HETATM   17  C   UNL     1      11.221  -2.141   8.362  1.00  0.00     0.227 C 
HETATM   18  C   UNL     1       6.579  -3.604   8.002  1.00  0.00     0.227 C 
HETATM   19  C   UNL     1       6.771   0.660   7.113  1.00  0.00     0.250 C 
HETATM   20  C   UNL     1       9.353   0.166   5.396  1.00  0.00     0.283 C 
HETATM   21  C   UNL     1      11.150  -0.785   7.670  1.00  0.00     0.250 C 
HETATM   22  C   UNL     1       5.107  -1.789   8.676  1.00  0.00     0.283 C 
HETATM   23  C   UNL     1       6.458  -4.417   9.310  1.00  0.00     0.250 C 
HETATM   24  C   UNL     1       9.518  -3.257   9.658  1.00  0.00     0.283 C 
HETATM   25  C   UNL     1       4.523   0.042   6.104  1.00  0.00     0.153 C 
HETATM   26  C   UNL     1      11.935  -1.872   5.525  1.00  0.00     0.153 C 
HETATM   27  C   UNL     1       7.383  -5.021  11.502  1.00  0.00     0.153 C 
ENDROOT
BRANCH  15  28
HETATM   28  C   UNL     1       6.684   2.608   5.540  1.00  0.00     0.016 C 
HETATM   29  C   UNL     1       7.815   3.633   5.609  1.00  0.00     0.012 C 
HETATM   30  C   UNL     1       5.951   2.710   4.203  1.00  0.00     0.012 C 
ENDBRANCH  15  28
BRANCH  14  31
HETATM   31  C   UNL     1      11.467   0.696   4.190  1.00  0.00     0.014 C 
HETATM   32  C   UNL     1      10.401   0.563   3.100  1.00  0.00     0.012 C 
BRANCH  31  33
HETATM   33  C   UNL     1      12.116   2.089   4.119  1.00  0.00     0.002 C 
HETATM   34  C   UNL     1      12.208   2.788   5.469  1.00  0.00     0.005 C 
ENDBRANCH  31  33
ENDBRANCH  14  31
BRANCH  13  35
HETATM   35  C   UNL     1       3.548   0.190   8.870  1.00  0.00     0.014 C 
HETATM   36  C   UNL     1       3.385   0.357  10.383  1.00  0.00     0.012 C 
BRANCH  35  37
HETATM   37  C   UNL     1       3.185   1.506   8.160  1.00  0.00     0.002 C 
HETATM   38  C   UNL     1       1.933   2.171   8.713  1.00  0.00     0.005 C 
ENDBRANCH  35  37
ENDBRANCH  13  35
BRANCH  17  39
HETATM   39  C   UNL     1      12.510  -2.274   9.151  1.00  0.00     0.016 C 
HETATM   40  C   UNL     1      12.681  -1.093  10.103  1.00  0.00     0.012 C 
HETATM   41  C   UNL     1      13.708  -2.382   8.209  1.00  0.00     0.012 C 
ENDBRANCH  17  39
BRANCH  18  42
HETATM   42  C   UNL     1       5.791  -4.255   6.864  1.00  0.00     0.016 C 
HETATM   43  C   UNL     1       5.176  -3.191   5.955  1.00  0.00     0.012 C 
HETATM   44  C   UNL     1       6.685  -5.195   6.058  1.00  0.00     0.012 C 
ENDBRANCH  18  42
BRANCH  16  45
HETATM   45  C   UNL     1       8.540  -2.393  11.788  1.00  0.00     0.010 C 
HETATM   46  C   UNL     1       8.258  -0.893  11.867  1.00  0.00     0.012 C 
HETATM   47  C   UNL     1       9.992  -2.683  12.165  1.00  0.00     0.012 C 
ENDBRANCH  16  45
TORSDOF 8
ENDMDL
MODEL 4
REMARK VINA RESULT:    -6.716      1.866      6.360
REMARK INTER + INTRA:          -9.534
REMARK INTER:                 -10.353
REMARK INTRA:                   0.819
REMARK UNBOUND:                 0.323
REMARK  8 active torsions:
REMARK  status: ('A' for Active; 'I' for Inactive)
REMARK    1  A    between atoms: C_13  and  C_15 
REMARK    2  A    between atoms: C_14  and  C_16 
REMARK    3  A    between atoms: C_15  and  C_22 
REMARK    4  A    between atoms: C_16  and  C_23 
REMARK    5  A    between atoms: C_17  and  C_21 
REMARK    6  A    between atoms: C_18  and  C_24 
REMARK    7  A    between atoms: C_19  and  C_27 
REMARK    8  A    between atoms: C_20  and  C_30 
ROOT
HETATM    1  O   UNL     1       7.662  -1.787  10.658  1.00  0.00    -0.304 OA
HETATM    2  O   UNL     1      10.888  -0.774   7.192  1.00  0.00    -0.304 OA
HETATM    3  O   UNL     1       7.262   0.817   6.320  1.00  0.00    -0.304 OA
HETATM    4  O   UNL     1       9.154   0.157   9.691  1.00  0.00    -0.270 OA
HETATM    5  O   UNL     1       7.689  -3.043   8.722  1.00  0.00    -0.263 OA
HETATM    6  O   UNL     1       6.060   0.609   8.606  1.00  0.00    -0.270 OA
HETATM    7  O   UNL     1      12.934   0.249   6.942  1.00  0.00    -0.263 OA
HETATM    8  O   UNL     1      12.123  -0.374   3.998  1.00  0.00    -0.270 OA
HETATM    9  O   UNL     1       7.759   0.383   4.109  1.00  0.00    -0.263 OA
HETATM   10  N   UNL     1      11.174  -0.977   9.819  1.00  0.00    -0.340 N 
HETATM   11  N   UNL     1       5.396  -1.553   8.088  1.00  0.00    -0.340 N 
HETATM   12  N   UNL     1      10.410   1.061   4.615  1.00  0.00    -0.340 N 
HETATM   13  C   UNL     1      11.904   0.121   9.142  1.00  0.00     0.190 C 
HETATM   14  C   UNL     1       5.626  -1.993   9.478  1.00  0.00     0.190 C 
HETATM   15  C   UNL     1       9.084  -1.950  10.827  1.00  0.00     0.227 C 
HETATM   16  C   UNL     1       9.371   1.496   5.572  1.00  0.00     0.190 C 
HETATM   17  C   UNL     1       6.037   0.055   6.284  1.00  0.00     0.227 C 
HETATM   18  C   UNL     1      10.746  -1.138   5.815  1.00  0.00     0.227 C 
HETATM   19  C   UNL     1       9.799  -0.832  10.059  1.00  0.00     0.250 C 
HETATM   20  C   UNL     1       7.103  -2.356   9.548  1.00  0.00     0.283 C 
HETATM   21  C   UNL     1       5.807  -0.253   7.758  1.00  0.00     0.250 C 
HETATM   22  C   UNL     1      12.012  -0.151   7.642  1.00  0.00     0.283 C 
HETATM   23  C   UNL     1      11.170  -0.113   4.740  1.00  0.00     0.250 C 
HETATM   24  C   UNL     1       8.052   0.832   5.207  1.00  0.00     0.283 C 
HETATM   25  C   UNL     1      11.948  -2.185  10.125  1.00  0.00     0.153 C 
HETATM   26  C   UNL     1       4.895  -2.522   7.111  1.00  0.00     0.153 C 
HETATM   27  C   UNL     1      10.665   1.919   3.457  1.00  0.00     0.153 C 
ENDROOT
BRANCH  15  28
HETATM   28  C   UNL     1       9.372  -1.829  12.318  1.00  0.00     0.016 C 
HETATM   29  C   UNL     1       8.220  -1.128  13.035  1.00  0.00     0.012 C 
HETATM   30  C   UNL     1       9.626  -3.205  12.932  1.00  0.00     0.012 C 
ENDBRANCH  15  28
BRANCH  14  31
HETATM   31  C   UNL     1       4.784  -3.162   9.970  1.00  0.00     0.014 C 
HETATM   32  C   UNL     1       5.361  -3.699  11.282  1.00  0.00     0.012 C 
BRANCH  31  33
HETATM   33  C   UNL     1       3.307  -2.778  10.168  1.00  0.00     0.002 C 
HETATM   34  C   UNL     1       2.747  -3.189  11.523  1.00  0.00     0.005 C 
ENDBRANCH  31  33
ENDBRANCH  14  31
BRANCH  13  35
HETATM   35  C   UNL     1      13.272   0.410   9.759  1.00  0.00     0.014 C 
HETATM   36  C   UNL     1      14.342  -0.443   9.072  1.00  0.00     0.012 C 
BRANCH  35  37
HETATM   37  C   UNL     1      13.655   1.898   9.666  1.00  0.00     0.002 C 
HETATM   38  C   UNL     1      12.478   2.843   9.863  1.00  0.00     0.005 C 
ENDBRANCH  35  37
ENDBRANCH  13  35
BRANCH  17  39
HETATM   39  C   UNL     1       4.906   0.903   5.729  1.00  0.00     0.016 C 
HETATM   40  C   UNL     1       3.856   1.166   6.805  1.00  0.00     0.012 C 
HETATM   41  C   UNL     1       4.273   0.226   4.515  1.00  0.00     0.012 C 
ENDBRANCH  17  39
BRANCH  18  42
HETATM   42  C   UNL     1      11.452  -2.480   5.618  1.00  0.00     0.016 C 
HETATM   43  C   UNL     1      11.744  -3.140   6.965  1.00  0.00     0.012 C 
HETATM   44  C   UNL     1      10.614  -3.406   4.739  1.00  0.00     0.012 C 
ENDBRANCH  18  42
BRANCH  16  45
HETATM   45  C   UNL     1       9.183   3.008   5.681  1.00  0.00     0.010 C 
HETATM   46  C   UNL     1       9.615   3.509   7.058  1.00  0.00     0.012 C 
HETATM   47  C   UNL     1       7.731   3.394   5.403  1.00  0.00     0.012 C 
ENDBRANCH  16  45
TORSDOF 8
ENDMDL
MODEL 5
REMARK VINA RESULT:    -6.581      1.666      6.480
REMARK INTER + INTRA:          -9.336
REMARK INTER:                 -10.630
REMARK INTRA:                   1.295
REMARK UNBOUND:                 0.323
REMARK  8 active torsions:
REMARK  status: ('A' for Active; 'I' for Inactive)
REMARK    1  A    between atoms: C_13  and  C_15 
REMARK    2  A    between atoms: C_14  and  C_16 
REMARK    3  A    between atoms: C_15  and  C_22 
REMARK    4  A    between atoms: C_16  and  C_23 
REMARK    5  A    between atoms: C_17  and  C_21 
REMARK    6  A    between atoms: C_18  and  C_24 
REMARK    7  A    between atoms: C_19  and  C_27 
REMARK    8  A    between atoms: C_20  and  C_30 
ROOT
HETATM    1  O   UNL     1       7.278   0.674   5.401  1.00  0.00    -0.304 OA
HETATM    2  O   UNL     1       7.871  -1.517   9.679  1.00  0.00    -0.304 OA
HETATM    3  O   UNL     1      10.674   1.357   9.111  1.00  0.00    -0.304 OA
HETATM    4  O   UNL     1       6.932   1.010   7.991  1.00  0.00    -0.270 OA
HETATM    5  O   UNL     1       8.873  -0.980   5.626  1.00  0.00    -0.263 OA
HETATM    6  O   UNL     1       9.666   2.651   7.105  1.00  0.00    -0.270 OA
HETATM    7  O   UNL     1       6.700  -1.931  11.617  1.00  0.00    -0.263 OA
HETATM    8  O   UNL     1       9.546  -3.001  12.302  1.00  0.00    -0.270 OA
HETATM    9  O   UNL     1      12.118  -0.020  10.269  1.00  0.00    -0.263 OA
HETATM   10  N   UNL     1       5.669  -0.905   8.337  1.00  0.00    -0.340 N 
HETATM   11  N   UNL     1      10.668   1.178   5.619  1.00  0.00    -0.340 N 
HETATM   12  N   UNL     1      10.013  -0.760  11.932  1.00  0.00    -0.340 N 
HETATM   13  C   UNL     1       5.645  -0.699   9.804  1.00  0.00     0.190 C 
HETATM   14  C   UNL     1       9.483   1.205   4.740  1.00  0.00     0.190 C 
HETATM   15  C   UNL     1       6.273  -0.162   6.010  1.00  0.00     0.227 C 
HETATM   16  C   UNL     1       9.881   0.471  11.124  1.00  0.00     0.190 C 
HETATM   17  C   UNL     1      11.532   1.425   7.952  1.00  0.00     0.227 C 
HETATM   18  C   UNL     1       9.060  -2.201  10.087  1.00  0.00     0.227 C 
HETATM   19  C   UNL     1       6.328   0.035   7.530  1.00  0.00     0.250 C 
HETATM   20  C   UNL     1       8.538   0.152   5.303  1.00  0.00     0.283 C 
HETATM   21  C   UNL     1      10.557   1.832   6.855  1.00  0.00     0.250 C 
HETATM   22  C   UNL     1       6.766  -1.492  10.476  1.00  0.00     0.283 C 
HETATM   23  C   UNL     1       9.543  -2.025  11.544  1.00  0.00     0.250 C 
HETATM   24  C   UNL     1      11.044   0.549  10.148  1.00  0.00     0.283 C 
HETATM   25  C   UNL     1       5.051  -2.139   7.840  1.00  0.00     0.153 C 
HETATM   26  C   UNL     1      11.823   0.365   5.228  1.00  0.00     0.153 C 
HETATM   27  C   UNL     1      10.680  -0.650  13.229  1.00  0.00     0.153 C 
ENDROOT
BRANCH  15  28
HETATM   28  C   UNL     1       4.925   0.298   5.470  1.00  0.00     0.016 C 
HETATM   29  C   UNL     1       4.240   1.239   6.459  1.00  0.00     0.012 C 
HETATM   30  C   UNL     1       5.092   0.978   4.112  1.00  0.00     0.012 C 
ENDBRANCH  15  28
BRANCH  14  31
HETATM   31  C   UNL     1       9.726   0.940   3.260  1.00  0.00     0.014 C 
HETATM   32  C   UNL     1       8.439   1.192   2.472  1.00  0.00     0.012 C 
BRANCH  31  33
HETATM   33  C   UNL     1      10.865   1.805   2.691  1.00  0.00     0.002 C 
HETATM   34  C   UNL     1      10.907   1.831   1.169  1.00  0.00     0.005 C 
ENDBRANCH  31  33
ENDBRANCH  14  31
BRANCH  13  35
HETATM   35  C   UNL     1       4.288  -1.002  10.437  1.00  0.00     0.014 C 
HETATM   36  C   UNL     1       4.303  -0.599  11.914  1.00  0.00     0.012 C 
BRANCH  35  37
HETATM   37  C   UNL     1       3.130  -0.289   9.715  1.00  0.00     0.002 C 
HETATM   38  C   UNL     1       2.790   1.071  10.307  1.00  0.00     0.005 C 
ENDBRANCH  35  37
ENDBRANCH  13  35
BRANCH  17  39
HETATM   39  C   UNL     1      12.596   2.491   8.148  1.00  0.00     0.016 C 
HETATM   40  C   UNL     1      12.779   3.307   6.871  1.00  0.00     0.012 C 
HETATM   41  C   UNL     1      13.918   1.857   8.574  1.00  0.00     0.012 C 
ENDBRANCH  17  39
BRANCH  18  42
HETATM   42  C   UNL     1       8.887  -3.677   9.729  1.00  0.00     0.016 C 
HETATM   43  C   UNL     1       8.300  -3.829   8.326  1.00  0.00     0.012 C 
HETATM   44  C   UNL     1      10.219  -4.418   9.834  1.00  0.00     0.012 C 
ENDBRANCH  18  42
BRANCH  16  45
HETATM   45  C   UNL     1       9.785   1.765  11.929  1.00  0.00     0.010 C 
HETATM   46  C   UNL     1       8.343   2.270  11.969  1.00  0.00     0.012 C 
HETATM   47  C   UNL     1      10.709   2.834  11.346  1.00  0.00     0.012 C 
ENDBRANCH  16  45
TORSDOF 8
ENDMDL
MODEL 6
REMARK VINA RESULT:    -6.306      2.045      7.119
REMARK INTER + INTRA:          -8.932
REMARK INTER:                  -9.336
REMARK INTRA:                   0.404
REMARK UNBOUND:                 0.323
REMARK  8 active torsions:
REMARK  status: ('A' for Active; 'I' for Inactive)
REMARK    1  A    between atoms: C_13  and  C_15 
REMARK    2  A    between atoms: C_14  and  C_16 
REMARK    3  A    between atoms: C_15  and  C_22 
REMARK    4  A    between atoms: C_16  and  C_23 
REMARK    5  A    between atoms: C_17  and  C_21 
REMARK    6  A    between atoms: C_18  and  C_24 
REMARK    7  A    between atoms: C_19  and  C_27 
REMARK    8  A    between atoms: C_20  and  C_30 
ROOT
HETATM    1  O   UNL     1       6.931  -4.101  10.280  1.00  0.00    -0.304 OA
HETATM    2  O   UNL     1       9.022   0.162   9.328  1.00  0.00    -0.304 OA
HETATM    3  O   UNL     1      11.793  -2.641  10.279  1.00  0.00    -0.304 OA
HETATM    4  O   UNL     1       8.327  -2.816   8.452  1.00  0.00    -0.270 OA
HETATM    5  O   UNL     1       7.572  -2.730  12.022  1.00  0.00    -0.263 OA
HETATM    6  O   UNL     1      10.392  -4.814  10.095  1.00  0.00    -0.270 OA
HETATM    7  O   UNL     1       9.159   1.710   7.630  1.00  0.00    -0.263 OA
HETATM    8  O   UNL     1      11.188   2.815   9.722  1.00  0.00    -0.270 OA
HETATM    9  O   UNL     1      12.978  -0.930  11.274  1.00  0.00    -0.263 OA
HETATM   10  N   UNL     1       6.894  -1.002   8.258  1.00  0.00    -0.340 N 
HETATM   11  N   UNL     1       9.677  -4.569  12.289  1.00  0.00    -0.340 N 
HETATM   12  N   UNL     1      12.161   0.769   9.227  1.00  0.00    -0.340 N 
HETATM   13  C   UNL     1       7.814  -0.295   7.335  1.00  0.00     0.190 C 
HETATM   14  C   UNL     1       8.325  -5.045  11.937  1.00  0.00     0.190 C 
HETATM   15  C   UNL     1       6.249  -3.013   9.625  1.00  0.00     0.227 C 
HETATM   16  C   UNL     1      12.064  -0.691   9.019  1.00  0.00     0.190 C 
HETATM   17  C   UNL     1      11.755  -3.432  11.487  1.00  0.00     0.227 C 
HETATM   18  C   UNL     1       9.850   0.886  10.243  1.00  0.00     0.227 C 
HETATM   19  C   UNL     1       7.252  -2.273   8.733  1.00  0.00     0.250 C 
HETATM   20  C   UNL     1       7.576  -3.812  11.450  1.00  0.00     0.283 C 
HETATM   21  C   UNL     1      10.570  -4.354  11.229  1.00  0.00     0.250 C 
HETATM   22  C   UNL     1       8.707   0.677   8.107  1.00  0.00     0.283 C 
HETATM   23  C   UNL     1      11.115   1.581   9.693  1.00  0.00     0.250 C 
HETATM   24  C   UNL     1      12.355  -1.399  10.332  1.00  0.00     0.283 C 
HETATM   25  C   UNL     1       5.690  -0.271   8.668  1.00  0.00     0.153 C 
HETATM   26  C   UNL     1       9.965  -4.213  13.680  1.00  0.00     0.153 C 
HETATM   27  C   UNL     1      13.440   1.413   8.923  1.00  0.00     0.153 C 
ENDROOT
BRANCH  15  28
HETATM   28  C   UNL     1       5.144  -3.626   8.776  1.00  0.00     0.016 C 
HETATM   29  C   UNL     1       5.434  -5.099   8.495  1.00  0.00     0.012 C 
HETATM   30  C   UNL     1       3.787  -3.469   9.460  1.00  0.00     0.012 C 
ENDBRANCH  15  28
BRANCH  14  31
HETATM   31  C   UNL     1       7.533  -5.723  13.047  1.00  0.00     0.014 C 
HETATM   32  C   UNL     1       6.250  -4.935  13.322  1.00  0.00     0.012 C 
BRANCH  31  33
HETATM   33  C   UNL     1       7.186  -7.184  12.708  1.00  0.00     0.002 C 
HETATM   34  C   UNL     1       6.157  -7.323  11.594  1.00  0.00     0.005 C 
ENDBRANCH  31  33
ENDBRANCH  14  31
BRANCH  13  35
HETATM   35  C   UNL     1       7.097   0.400   6.179  1.00  0.00     0.014 C 
HETATM   36  C   UNL     1       8.086   0.669   5.041  1.00  0.00     0.012 C 
BRANCH  35  37
HETATM   37  C   UNL     1       5.905  -0.417   5.649  1.00  0.00     0.002 C 
HETATM   38  C   UNL     1       4.831   0.432   4.986  1.00  0.00     0.005 C 
ENDBRANCH  35  37
ENDBRANCH  13  35
BRANCH  17  39
HETATM   39  C   UNL     1      13.037  -4.232  11.631  1.00  0.00     0.016 C 
HETATM   40  C   UNL     1      12.735  -5.728  11.670  1.00  0.00     0.012 C 
HETATM   41  C   UNL     1      13.797  -3.805  12.885  1.00  0.00     0.012 C 
ENDBRANCH  17  39
BRANCH  18  42
HETATM   42  C   UNL     1       8.954   1.869  10.997  1.00  0.00     0.016 C 
HETATM   43  C   UNL     1       7.615   1.221  11.347  1.00  0.00     0.012 C 
HETATM   44  C   UNL     1       9.649   2.376  12.258  1.00  0.00     0.012 C 
ENDBRANCH  18  42
BRANCH  16  45
HETATM   45  C   UNL     1      12.960  -1.248   7.914  1.00  0.00     0.010 C 
HETATM   46  C   UNL     1      12.133  -2.017   6.885  1.00  0.00     0.012 C 
HETATM   47  C   UNL     1      14.049  -2.144   8.502  1.00  0.00     0.012 C 
ENDBRANCH  16  45
TORSDOF 8
ENDMDL
MODEL 7
REMARK VINA RESULT:    -6.266      2.115      3.952
REMARK INTER + INTRA:          -8.874
REMARK INTER:                  -9.534
REMARK INTRA:                   0.660
REMARK UNBOUND:                 0.323
REMARK  8 active torsions:
REMARK  status: ('A' for Active; 'I' for Inactive)
REMARK    1  A    between atoms: C_13  and  C_15 
REMARK    2  A    between atoms: C_14  and  C_16 
REMARK    3  A    between atoms: C_15  and  C_22 
REMARK    4  A    between atoms: C_16  and  C_23 
REMARK    5  A    between atoms: C_17  and  C_21 
REMARK    6  A    between atoms: C_18  and  C_24 
REMARK    7  A    between atoms: C_19  and  C_27 
REMARK    8  A    between atoms: C_20  and  C_30 
ROOT
HETATM    1  O   UNL     1       8.444  -1.107   7.053  1.00  0.00    -0.304 OA
HETATM    2  O   UNL     1      11.041   0.838  10.648  1.00  0.00    -0.304 OA
HETATM    3  O   UNL     1      10.872  -3.199  10.989  1.00  0.00    -0.304 OA
HETATM    4  O   UNL     1      10.913  -0.772   7.908  1.00  0.00    -0.270 OA
HETATM    5  O   UNL     1       7.471  -0.790   9.122  1.00  0.00    -0.263 OA
HETATM    6  O   UNL     1       9.987  -3.863   8.646  1.00  0.00    -0.270 OA
HETATM    7  O   UNL     1      12.895   2.167  10.955  1.00  0.00    -0.263 OA
HETATM    8  O   UNL     1      12.173   1.325  13.868  1.00  0.00    -0.270 OA
HETATM    9  O   UNL     1      10.861  -2.864  13.272  1.00  0.00    -0.263 OA
HETATM   10  N   UNL     1      10.812   1.537   8.101  1.00  0.00    -0.340 N 
HETATM   11  N   UNL     1       7.799  -3.568   9.360  1.00  0.00    -0.340 N 
HETATM   12  N   UNL     1      12.631  -0.745  12.929  1.00  0.00    -0.340 N 
HETATM   13  C   UNL     1      12.164   1.608   8.703  1.00  0.00     0.190 C 
HETATM   14  C   UNL     1       7.418  -2.982   8.061  1.00  0.00     0.190 C 
HETATM   15  C   UNL     1       8.932   0.249   7.034  1.00  0.00     0.227 C 
HETATM   16  C   UNL     1      12.481  -1.729  11.836  1.00  0.00     0.190 C 
HETATM   17  C   UNL     1       9.641  -3.953  11.007  1.00  0.00     0.227 C 
HETATM   18  C   UNL     1      10.747   0.687  12.040  1.00  0.00     0.227 C 
HETATM   19  C   UNL     1      10.302   0.286   7.722  1.00  0.00     0.250 C 
HETATM   20  C   UNL     1       7.760  -1.502   8.169  1.00  0.00     0.283 C 
HETATM   21  C   UNL     1       9.163  -3.821   9.567  1.00  0.00     0.250 C 
HETATM   22  C   UNL     1      12.074   1.621  10.229  1.00  0.00     0.283 C 
HETATM   23  C   UNL     1      11.923   0.465  13.017  1.00  0.00     0.250 C 
HETATM   24  C   UNL     1      11.319  -2.654  12.159  1.00  0.00     0.283 C 
HETATM   25  C   UNL     1      10.068   2.798   8.015  1.00  0.00     0.153 C 
HETATM   26  C   UNL     1       6.777  -3.715  10.399  1.00  0.00     0.153 C 
HETATM   27  C   UNL     1      13.586  -1.054  13.992  1.00  0.00     0.153 C 
ENDROOT
BRANCH  15  28
HETATM   28  C   UNL     1       9.069   0.653   5.572  1.00  0.00     0.016 C 
HETATM   29  C   UNL     1      10.058  -0.260   4.850  1.00  0.00     0.012 C 
HETATM   30  C   UNL     1       7.709   0.625   4.875  1.00  0.00     0.012 C 
ENDBRANCH  15  28
BRANCH  14  31
HETATM   31  C   UNL     1       5.964  -3.145   7.641  1.00  0.00     0.014 C 
HETATM   32  C   UNL     1       5.605  -2.083   6.598  1.00  0.00     0.012 C 
BRANCH  31  33
HETATM   33  C   UNL     1       5.671  -4.548   7.080  1.00  0.00     0.002 C 
HETATM   34  C   UNL     1       4.268  -4.694   6.507  1.00  0.00     0.005 C 
ENDBRANCH  31  33
ENDBRANCH  14  31
BRANCH  13  35
HETATM   35  C   UNL     1      13.000   2.777   8.181  1.00  0.00     0.014 C 
HETATM   36  C   UNL     1      14.486   2.416   8.234  1.00  0.00     0.012 C 
BRANCH  35  37
HETATM   37  C   UNL     1      12.613   3.181   6.747  1.00  0.00     0.002 C 
HETATM   38  C   UNL     1      13.373   2.416   5.673  1.00  0.00     0.005 C 
ENDBRANCH  35  37
ENDBRANCH  13  35
BRANCH  17  39
HETATM   39  C   UNL     1       9.920  -5.405  11.350  1.00  0.00     0.016 C 
HETATM   40  C   UNL     1       9.416  -5.732  12.753  1.00  0.00     0.012 C 
HETATM   41  C   UNL     1      11.413  -5.707  11.233  1.00  0.00     0.012 C 
ENDBRANCH  17  39
BRANCH  18  42
HETATM   42  C   UNL     1       9.887   1.879  12.462  1.00  0.00     0.016 C 
HETATM   43  C   UNL     1       8.912   2.262  11.349  1.00  0.00     0.012 C 
HETATM   44  C   UNL     1       9.131   1.570  13.752  1.00  0.00     0.012 C 
ENDBRANCH  18  42
BRANCH  16  45
HETATM   45  C   UNL     1      13.733  -2.549  11.528  1.00  0.00     0.010 C 
HETATM   46  C   UNL     1      13.808  -2.881  10.039  1.00  0.00     0.012 C 
HETATM   47  C   UNL     1      13.760  -3.829  12.363  1.00  0.00     0.012 C 
ENDBRANCH  16  45
TORSDOF 8
ENDMDL
MODEL 8
REMARK VINA RESULT:    -6.237      2.032      6.310
REMARK INTER + INTRA:          -8.831
REMARK INTER:                  -9.414
REMARK INTRA:                   0.583
REMARK UNBOUND:                 0.323
REMARK  8 active torsions:
REMARK  status: ('A' for Active; 'I' for Inactive)
REMARK    1  A    between atoms: C_13  and  C_15 
REMARK    2  A    between atoms: C_14  and  C_16 
REMARK    3  A    between atoms: C_15  and  C_22 
REMARK    4  A    between atoms: C_16  and  C_23 
REMARK    5  A    between atoms: C_17  and  C_21 
REMARK    6  A    between atoms: C_18  and  C_24 
REMARK    7  A    between atoms: C_19  and  C_27 
REMARK    8  A    between atoms: C_20  and  C_30 
ROOT
HETATM    1  O   UNL     1       7.002   0.321   9.242  1.00  0.00    -0.304 OA
HETATM    2  O   UNL     1      11.442  -0.636  10.919  1.00  0.00    -0.304 OA
HETATM    3  O   UNL     1      11.597   1.845   7.716  1.00  0.00    -0.304 OA
HETATM    4  O   UNL     1       8.993   1.370  10.611  1.00  0.00    -0.270 OA
HETATM    5  O   UNL     1       8.297  -1.276   8.195  1.00  0.00    -0.263 OA
HETATM    6  O   UNL     1       9.119   2.583   7.534  1.00  0.00    -0.270 OA
HETATM    7  O   UNL     1      12.664  -0.451  12.861  1.00  0.00    -0.263 OA
HETATM    8  O   UNL     1      14.799  -1.417  10.807  1.00  0.00    -0.270 OA
HETATM    9  O   UNL     1      13.564   0.776   7.160  1.00  0.00    -0.263 OA
HETATM   10  N   UNL     1       9.140  -0.319  12.194  1.00  0.00    -0.340 N 
HETATM   11  N   UNL     1       8.632   0.716   6.245  1.00  0.00    -0.340 N 
HETATM   12  N   UNL     1      14.193   0.614   9.866  1.00  0.00    -0.340 N 
HETATM   13  C   UNL     1      10.344   0.282  12.814  1.00  0.00     0.190 C 
HETATM   14  C   UNL     1       7.326   0.554   6.914  1.00  0.00     0.190 C 
HETATM   15  C   UNL     1       7.251  -0.270  10.533  1.00  0.00     0.227 C 
HETATM   16  C   UNL     1      13.162   1.581   9.433  1.00  0.00     0.190 C 
HETATM   17  C   UNL     1      10.979   1.555   6.444  1.00  0.00     0.227 C 
HETATM   18  C   UNL     1      12.492  -1.234  10.152  1.00  0.00     0.227 C 
HETATM   19  C   UNL     1       8.538   0.334  11.108  1.00  0.00     0.250 C 
HETATM   20  C   UNL     1       7.613  -0.262   8.167  1.00  0.00     0.283 C 
HETATM   21  C   UNL     1       9.497   1.688   6.770  1.00  0.00     0.250 C 
HETATM   22  C   UNL     1      11.614  -0.345  12.239  1.00  0.00     0.283 C 
HETATM   23  C   UNL     1      13.927  -0.687  10.323  1.00  0.00     0.250 C 
HETATM   24  C   UNL     1      12.839   1.337   7.967  1.00  0.00     0.283 C 
HETATM   25  C   UNL     1       8.706  -1.614  12.730  1.00  0.00     0.153 C 
HETATM   26  C   UNL     1       9.008  -0.223   5.186  1.00  0.00     0.153 C 
HETATM   27  C   UNL     1      15.590   1.046   9.815  1.00  0.00     0.153 C 
ENDROOT
BRANCH  15  28
HETATM   28  C   UNL     1       6.064   0.083  11.421  1.00  0.00     0.016 C 
HETATM   29  C   UNL     1       6.236   1.477  12.022  1.00  0.00     0.012 C 
HETATM   30  C   UNL     1       4.758  -0.003  10.634  1.00  0.00     0.012 C 
ENDBRANCH  15  28
BRANCH  14  31
HETATM   31  C   UNL     1       6.226  -0.118   6.103  1.00  0.00     0.014 C 
HETATM   32  C   UNL     1       5.111  -0.591   7.039  1.00  0.00     0.012 C 
BRANCH  31  33
HETATM   33  C   UNL     1       5.643   0.813   5.025  1.00  0.00     0.002 C 
HETATM   34  C   UNL     1       4.147   0.629   4.805  1.00  0.00     0.005 C 
ENDBRANCH  31  33
ENDBRANCH  14  31
BRANCH  13  35
HETATM   35  C   UNL     1      10.333   0.224  14.341  1.00  0.00     0.014 C 
HETATM   36  C   UNL     1      11.525   1.007  14.898  1.00  0.00     0.012 C 
BRANCH  35  37
HETATM   37  C   UNL     1       9.025   0.772  14.940  1.00  0.00     0.002 C 
HETATM   38  C   UNL     1       8.788   2.245  14.640  1.00  0.00     0.005 C 
ENDBRANCH  35  37
ENDBRANCH  13  35
BRANCH  17  39
HETATM   39  C   UNL     1      11.396   2.585   5.410  1.00  0.00     0.016 C 
HETATM   40  C   UNL     1      10.172   3.287   4.827  1.00  0.00     0.012 C 
HETATM   41  C   UNL     1      12.219   1.931   4.302  1.00  0.00     0.012 C 
ENDBRANCH  17  39
BRANCH  18  42
HETATM   42  C   UNL     1      12.436  -2.743  10.393  1.00  0.00     0.016 C 
HETATM   43  C   UNL     1      11.008  -3.263  10.236  1.00  0.00     0.012 C 
HETATM   44  C   UNL     1      13.380  -3.476   9.442  1.00  0.00     0.012 C 
ENDBRANCH  18  42
BRANCH  16  45
HETATM   45  C   UNL     1      13.519   3.049   9.653  1.00  0.00     0.010 C 
HETATM   46  C   UNL     1      12.556   3.696  10.649  1.00  0.00     0.012 C 
HETATM   47  C   UNL     1      13.510   3.813   8.330  1.00  0.00     0.012 C 
ENDBRANCH  16  45
TORSDOF 8
ENDMDL
MODEL 9
REMARK VINA RESULT:    -6.225      2.383      5.490
REMARK INTER + INTRA:          -8.814
REMARK INTER:                 -10.337
REMARK INTRA:                   1.523
REMARK UNBOUND:                 0.323
REMARK  8 active torsions:
REMARK  status: ('A' for Active; 'I' for Inactive)
REMARK    1  A    between atoms: C_13  and  C_15 
REMARK    2  A    between atoms: C_14  and  C_16 
REMARK    3  A    between atoms: C_15  and  C_22 
REMARK    4  A    between atoms: C_16  and  C_23 
REMARK    5  A    between atoms: C_17  and  C_21 
REMARK    6  A    between atoms: C_18  and  C_24 
REMARK    7  A    between atoms: C_19  and  C_27 
REMARK    8  A    between atoms: C_20  and  C_30 
ROOT
HETATM    1  O   UNL     1       4.760   0.389   7.003  1.00  0.00    -0.304 OA
HETATM    2  O   UNL     1       9.546   0.586   6.293  1.00  0.00    -0.304 OA
HETATM    3  O   UNL     1       8.470  -2.923   8.015  1.00  0.00    -0.304 OA
HETATM    4  O   UNL     1       6.687  -0.536   5.464  1.00  0.00    -0.270 OA
HETATM    5  O   UNL     1       6.152   0.941   8.759  1.00  0.00    -0.263 OA
HETATM    6  O   UNL     1       5.905  -2.895   7.650  1.00  0.00    -0.270 OA
HETATM    7  O   UNL     1      11.057   0.871   4.580  1.00  0.00    -0.263 OA
HETATM    8  O   UNL     1      12.898   0.210   7.006  1.00  0.00    -0.270 OA
HETATM    9  O   UNL     1      10.478  -2.821   9.146  1.00  0.00    -0.263 OA
HETATM   10  N   UNL     1       7.539   1.530   4.841  1.00  0.00    -0.340 N 
HETATM   11  N   UNL     1       5.615  -1.681   9.606  1.00  0.00    -0.340 N 
HETATM   12  N   UNL     1      11.660  -1.745   6.869  1.00  0.00    -0.340 N 
HETATM   13  C   UNL     1       8.670   0.912   4.110  1.00  0.00     0.190 C 
HETATM   14  C   UNL     1       4.545  -0.875   8.987  1.00  0.00     0.190 C 
HETATM   15  C   UNL     1       5.394   1.360   6.146  1.00  0.00     0.227 C 
HETATM   16  C   UNL     1      10.367  -2.448   6.733  1.00  0.00     0.190 C 
HETATM   17  C   UNL     1       7.693  -3.019   9.228  1.00  0.00     0.227 C 
HETATM   18  C   UNL     1      10.528   0.468   7.326  1.00  0.00     0.227 C 
HETATM   19  C   UNL     1       6.595   0.697   5.461  1.00  0.00     0.250 C 
HETATM   20  C   UNL     1       5.260   0.262   8.269  1.00  0.00     0.283 C 
HETATM   21  C   UNL     1       6.318  -2.556   8.765  1.00  0.00     0.250 C 
HETATM   22  C   UNL     1       9.908   0.834   5.003  1.00  0.00     0.283 C 
HETATM   23  C   UNL     1      11.801  -0.358   7.036  1.00  0.00     0.250 C 
HETATM   24  C   UNL     1       9.820  -2.752   8.119  1.00  0.00     0.283 C 
HETATM   25  C   UNL     1       7.534   2.994   4.922  1.00  0.00     0.153 C 
HETATM   26  C   UNL     1       5.977  -1.427  11.002  1.00  0.00     0.153 C 
HETATM   27  C   UNL     1      12.878  -2.554   6.824  1.00  0.00     0.153 C 
ENDROOT
BRANCH  15  28
HETATM   28  C   UNL     1       4.363   1.779   5.107  1.00  0.00     0.016 C 
HETATM   29  C   UNL     1       4.669   1.139   3.754  1.00  0.00     0.012 C 
HETATM   30  C   UNL     1       2.953   1.410   5.567  1.00  0.00     0.012 C 
ENDBRANCH  15  28
BRANCH  14  31
HETATM   31  C   UNL     1       3.490  -0.307   9.927  1.00  0.00     0.014 C 
HETATM   32  C   UNL     1       2.804   0.893   9.270  1.00  0.00     0.012 C 
BRANCH  31  33
HETATM   33  C   UNL     1       2.437  -1.356  10.326  1.00  0.00     0.002 C 
HETATM   34  C   UNL     1       1.180  -0.755  10.941  1.00  0.00     0.005 C 
ENDBRANCH  31  33
ENDBRANCH  14  31
BRANCH  13  35
HETATM   35  C   UNL     1       8.981   1.600   2.781  1.00  0.00     0.014 C 
HETATM   36  C   UNL     1      10.029   0.791   2.011  1.00  0.00     0.012 C 
BRANCH  35  37
HETATM   37  C   UNL     1       7.727   1.789   1.909  1.00  0.00     0.002 C 
HETATM   38  C   UNL     1       8.038   2.064   0.446  1.00  0.00     0.005 C 
ENDBRANCH  35  37
ENDBRANCH  13  35
BRANCH  17  39
HETATM   39  C   UNL     1       7.642  -4.458   9.707  1.00  0.00     0.016 C 
HETATM   40  C   UNL     1       6.198  -4.945   9.791  1.00  0.00     0.012 C 
HETATM   41  C   UNL     1       8.335  -4.598  11.061  1.00  0.00     0.012 C 
ENDBRANCH  17  39
BRANCH  18  42
HETATM   42  C   UNL     1      10.875   1.882   7.796  1.00  0.00     0.016 C 
HETATM   43  C   UNL     1       9.786   2.871   7.382  1.00  0.00     0.012 C 
HETATM   44  C   UNL     1      11.078   1.913   9.309  1.00  0.00     0.012 C 
ENDBRANCH  18  42
BRANCH  16  45
HETATM   45  C   UNL     1      10.410  -3.725   5.896  1.00  0.00     0.010 C 
HETATM   46  C   UNL     1      11.059  -3.460   4.538  1.00  0.00     0.012 C 
HETATM   47  C   UNL     1       9.006  -4.300   5.713  1.00  0.00     0.012 C 
ENDBRANCH  16  45
TORSDOF 8
ENDMDL
MODEL 10
REMARK VINA RESULT:    -6.165      2.136      6.525
REMARK INTER + INTRA:          -8.725
REMARK INTER:                 -10.552
REMARK INTRA:                   1.827
REMARK UNBOUND:                 0.323
REMARK  8 active torsions:
REMARK  status: ('A' for Active; 'I' for Inactive)
REMARK    1  A    between atoms: C_13  and  C_15 
REMARK    2  A    between atoms: C_14  and  C_16 
REMARK    3  A    between atoms: C_15  and  C_22 
REMARK    4  A    between atoms: C_16  and  C_23 
REMARK    5  A    between atoms: C_17  and  C_21 
REMARK    6  A    between atoms: C_18  and  C_24 
REMARK    7  A    between atoms: C_19  and  C_27 
REMARK    8  A    between atoms: C_20  and  C_30 
ROOT
HETATM    1  O   UNL     1       9.809  -0.452  11.565  1.00  0.00    -0.304 OA
HETATM    2  O   UNL     1      11.177   0.264   6.975  1.00  0.00    -0.304 OA
HETATM    3  O   UNL     1       7.141   0.419   7.335  1.00  0.00    -0.304 OA
HETATM    4  O   UNL     1      10.082   1.418   9.730  1.00  0.00    -0.270 OA
HETATM    5  O   UNL     1       9.709  -2.198  10.059  1.00  0.00    -0.263 OA
HETATM    6  O   UNL     1       6.875   0.621   9.905  1.00  0.00    -0.270 OA
HETATM    7  O   UNL     1      12.502   1.684   5.739  1.00  0.00    -0.263 OA
HETATM    8  O   UNL     1      11.121  -0.042   3.542  1.00  0.00    -0.270 OA
HETATM    9  O   UNL     1       7.058  -0.538   5.238  1.00  0.00    -0.263 OA
HETATM   10  N   UNL     1      12.313   0.995   9.256  1.00  0.00    -0.340 N 
HETATM   11  N   UNL     1       6.949  -1.688  10.120  1.00  0.00    -0.340 N 
HETATM   12  N   UNL     1       9.274   0.977   4.504  1.00  0.00    -0.340 N 
HETATM   13  C   UNL     1      12.329   1.978   8.148  1.00  0.00     0.190 C 
HETATM   14  C   UNL     1       7.744  -1.581  11.359  1.00  0.00     0.190 C 
HETATM   15  C   UNL     1      11.165  -0.149  11.181  1.00  0.00     0.227 C 
HETATM   16  C   UNL     1       8.497   1.384   5.693  1.00  0.00     0.190 C 
HETATM   17  C   UNL     1       6.347  -0.626   7.938  1.00  0.00     0.227 C 
HETATM   18  C   UNL     1      10.766  -0.542   5.867  1.00  0.00     0.227 C 
HETATM   19  C   UNL     1      11.131   0.819   9.992  1.00  0.00     0.250 C 
HETATM   20  C   UNL     1       9.193  -1.476  10.901  1.00  0.00     0.283 C 
HETATM   21  C   UNL     1       6.717  -0.501   9.410  1.00  0.00     0.250 C 
HETATM   22  C   UNL     1      12.063   1.286   6.811  1.00  0.00     0.283 C 
HETATM   23  C   UNL     1      10.419   0.164   4.537  1.00  0.00     0.250 C 
HETATM   24  C   UNL     1       7.483   0.299   6.019  1.00  0.00     0.283 C 
HETATM   25  C   UNL     1      13.539   0.213   9.454  1.00  0.00     0.153 C 
HETATM   26  C   UNL     1       6.576  -3.017   9.628  1.00  0.00     0.153 C 
HETATM   27  C   UNL     1       8.817   1.457   3.200  1.00  0.00     0.153 C 
ENDROOT
BRANCH  15  28
HETATM   28  C   UNL     1      11.830   0.514  12.379  1.00  0.00     0.016 C 
HETATM   29  C   UNL     1      10.780   1.073  13.338  1.00  0.00     0.012 C 
HETATM   30  C   UNL     1      12.744  -0.473  13.104  1.00  0.00     0.012 C 
ENDBRANCH  15  28
BRANCH  14  31
HETATM   31  C   UNL     1       7.601  -2.720  12.359  1.00  0.00     0.014 C 
HETATM   32  C   UNL     1       8.777  -2.698  13.338  1.00  0.00     0.012 C 
BRANCH  31  33
HETATM   33  C   UNL     1       6.274  -2.653  13.135  1.00  0.00     0.002 C 
HETATM   34  C   UNL     1       5.581  -4.002  13.274  1.00  0.00     0.005 C 
ENDBRANCH  31  33
ENDBRANCH  14  31
BRANCH  13  35
HETATM   35  C   UNL     1      13.605   2.818   8.100  1.00  0.00     0.014 C 
HETATM   36  C   UNL     1      13.766   3.592   9.411  1.00  0.00     0.012 C 
BRANCH  35  37
HETATM   37  C   UNL     1      14.860   1.965   7.842  1.00  0.00     0.002 C 
HETATM   38  C   UNL     1      15.828   2.592   6.849  1.00  0.00     0.005 C 
ENDBRANCH  35  37
ENDBRANCH  13  35
BRANCH  17  39
HETATM   39  C   UNL     1       4.870  -0.348   7.729  1.00  0.00     0.016 C 
HETATM   40  C   UNL     1       4.668   1.003   7.048  1.00  0.00     0.012 C 
HETATM   41  C   UNL     1       4.122  -0.395   9.060  1.00  0.00     0.012 C 
ENDBRANCH  17  39
BRANCH  18  42
HETATM   42  C   UNL     1      11.827  -1.624   5.666  1.00  0.00     0.016 C 
HETATM   43  C   UNL     1      12.380  -2.096   7.010  1.00  0.00     0.012 C 
HETATM   44  C   UNL     1      11.255  -2.802   4.879  1.00  0.00     0.012 C 
ENDBRANCH  18  42
BRANCH  16  45
HETATM   45  C   UNL     1       7.797   2.737   5.576  1.00  0.00     0.010 C 
HETATM   46  C   UNL     1       6.753   2.710   4.461  1.00  0.00     0.012 C 
HETATM   47  C   UNL     1       8.812   3.852   5.331  1.00  0.00     0.012 C 
ENDBRANCH  16  45
TORSDOF 8
ENDMDL
MODEL 11
REMARK VINA RESULT:    -6.160      1.984      6.945
REMARK INTER + INTRA:          -8.718
REMARK INTER:                  -9.615
REMARK INTRA:                   0.898
REMARK UNBOUND:                 0.323
REMARK  8 active torsions:
REMARK  status: ('A' for Active; 'I' for Inactive)
REMARK    1  A    between atoms: C_13  and  C_15 
REMARK    2  A    between atoms: C_14  and  C_16 
REMARK    3  A    between atoms: C_15  and  C_22 
REMARK    4  A    between atoms: C_16  and  C_23 
REMARK    5  A    between atoms: C_17  and  C_21 
REMARK    6  A    between atoms: C_18  and  C_24 
REMARK    7  A    between atoms: C_19  and  C_27 
REMARK    8  A    between atoms: C_20  and  C_30 
ROOT
HETATM    1  O   UNL     1      11.743   0.448   8.129  1.00  0.00    -0.304 OA
HETATM    2  O   UNL     1       7.578  -1.804   7.116  1.00  0.00    -0.304 OA
HETATM    3  O   UNL     1       8.566  -2.253  11.022  1.00  0.00    -0.304 OA
HETATM    4  O   UNL     1       9.134   0.638   8.433  1.00  0.00    -0.270 OA
HETATM    5  O   UNL     1      11.738  -1.831   7.764  1.00  0.00    -0.263 OA
HETATM    6  O   UNL     1      10.416  -0.457  11.281  1.00  0.00    -0.270 OA
HETATM    7  O   UNL     1       5.489  -1.335   6.271  1.00  0.00    -0.263 OA
HETATM    8  O   UNL     1       5.212  -4.312   7.155  1.00  0.00    -0.270 OA
HETATM    9  O   UNL     1       7.617  -4.351  10.876  1.00  0.00    -0.263 OA
HETATM   10  N   UNL     1       8.595   0.460   6.184  1.00  0.00    -0.340 N 
HETATM   11  N   UNL     1      12.020  -1.969  10.554  1.00  0.00    -0.340 N 
HETATM   12  N   UNL     1       5.663  -3.304   9.194  1.00  0.00    -0.340 N 
HETATM   13  C   UNL     1       7.141   0.439   6.470  1.00  0.00     0.190 C 
HETATM   14  C   UNL     1      12.719  -0.913   9.795  1.00  0.00     0.190 C 
HETATM   15  C   UNL     1      10.990   0.681   6.922  1.00  0.00     0.227 C 
HETATM   16  C   UNL     1       6.453  -2.375  10.029  1.00  0.00     0.190 C 
HETATM   17  C   UNL     1       9.837  -2.766  11.476  1.00  0.00     0.227 C 
HETATM   18  C   UNL     1       7.340  -3.202   7.306  1.00  0.00     0.227 C 
HETATM   19  C   UNL     1       9.496   0.587   7.252  1.00  0.00     0.250 C 
HETATM   20  C   UNL     1      12.018  -0.853   8.445  1.00  0.00     0.283 C 
HETATM   21  C   UNL     1      10.786  -1.627  11.126  1.00  0.00     0.250 C 
HETATM   22  C   UNL     1       6.631  -1.000   6.557  1.00  0.00     0.283 C 
HETATM   23  C   UNL     1       5.969  -3.642   7.866  1.00  0.00     0.250 C 
HETATM   24  C   UNL     1       7.587  -3.144  10.688  1.00  0.00     0.283 C 
HETATM   25  C   UNL     1       8.988   0.269   4.784  1.00  0.00     0.153 C 
HETATM   26  C   UNL     1      12.566  -3.328  10.547  1.00  0.00     0.153 C 
HETATM   27  C   UNL     1       4.476  -3.912   9.795  1.00  0.00     0.153 C 
ENDROOT
BRANCH  15  28
HETATM   28  C   UNL     1      11.335   2.086   6.446  1.00  0.00     0.016 C 
HETATM   29  C   UNL     1      12.066   2.862   7.540  1.00  0.00     0.012 C 
HETATM   30  C   UNL     1      12.178   2.032   5.173  1.00  0.00     0.012 C 
ENDBRANCH  15  28
BRANCH  14  31
HETATM   31  C   UNL     1      14.216  -1.101   9.590  1.00  0.00     0.014 C 
HETATM   32  C   UNL     1      14.732  -0.073   8.580  1.00  0.00     0.012 C 
BRANCH  31  33
HETATM   33  C   UNL     1      15.006  -0.983  10.905  1.00  0.00     0.002 C 
HETATM   34  C   UNL     1      16.450  -0.539  10.711  1.00  0.00     0.005 C 
ENDBRANCH  31  33
ENDBRANCH  14  31
BRANCH  13  35
HETATM   35  C   UNL     1       6.317   1.266   5.484  1.00  0.00     0.014 C 
HETATM   36  C   UNL     1       4.908   1.486   6.042  1.00  0.00     0.012 C 
BRANCH  35  37
HETATM   37  C   UNL     1       6.969   2.625   5.169  1.00  0.00     0.002 C 
HETATM   38  C   UNL     1       7.123   2.895   3.680  1.00  0.00     0.005 C 
ENDBRANCH  35  37
ENDBRANCH  13  35
BRANCH  17  39
HETATM   39  C   UNL     1       9.805  -2.996  12.976  1.00  0.00     0.016 C 
HETATM   40  C   UNL     1      10.787  -2.066  13.684  1.00  0.00     0.012 C 
HETATM   41  C   UNL     1      10.118  -4.455  13.302  1.00  0.00     0.012 C 
ENDBRANCH  17  39
BRANCH  18  42
HETATM   42  C   UNL     1       7.658  -3.907   5.986  1.00  0.00     0.016 C 
HETATM   43  C   UNL     1       9.122  -3.698   5.600  1.00  0.00     0.012 C 
HETATM   44  C   UNL     1       7.337  -5.398   6.080  1.00  0.00     0.012 C 
ENDBRANCH  18  42
BRANCH  16  45
HETATM   45  C   UNL     1       5.653  -1.614  11.085  1.00  0.00     0.010 C 
HETATM   46  C   UNL     1       5.811  -0.106  10.899  1.00  0.00     0.012 C 
HETATM   47  C   UNL     1       6.084  -2.027  12.491  1.00  0.00     0.012 C 
ENDBRANCH  16  45
TORSDOF 8
ENDMDL
MODEL 12
REMARK VINA RESULT:    -6.073      2.307      6.849
REMARK INTER + INTRA:          -8.591
REMARK INTER:                  -9.901
REMARK INTRA:                   1.311
REMARK UNBOUND:                 0.323
REMARK  8 active torsions:
REMARK  status: ('A' for Active; 'I' for Inactive)
REMARK    1  A    between atoms: C_13  and  C_15 
REMARK    2  A    between atoms: C_14  and  C_16 
REMARK    3  A    between atoms: C_15  and  C_22 
REMARK    4  A    between atoms: C_16  and  C_23 
REMARK    5  A    between atoms: C_17  and  C_21 
REMARK    6  A    between atoms: C_18  and  C_24 
REMARK    7  A    between atoms: C_19  and  C_27 
REMARK    8  A    between atoms: C_20  and  C_30 
ROOT
HETATM    1  O   UNL     1       9.965   1.478   8.683  1.00  0.00    -0.304 OA
HETATM    2  O   UNL     1       6.836  -2.183   9.196  1.00  0.00    -0.304 OA
HETATM    3  O   UNL     1       6.636   0.360  12.348  1.00  0.00    -0.304 OA
HETATM    4  O   UNL     1       7.404   0.877   8.536  1.00  0.00    -0.270 OA
HETATM    5  O   UNL     1      10.514  -0.312  10.032  1.00  0.00    -0.263 OA
HETATM    6  O   UNL     1       7.930   2.406  11.424  1.00  0.00    -0.270 OA
HETATM    7  O   UNL     1       5.061  -3.143   8.089  1.00  0.00    -0.263 OA
HETATM    8  O   UNL     1       5.107  -4.706  10.786  1.00  0.00    -0.270 OA
HETATM    9  O   UNL     1       6.203  -1.501  13.641  1.00  0.00    -0.263 OA
HETATM   10  N   UNL     1       7.632  -0.874   7.032  1.00  0.00    -0.340 N 
HETATM   11  N   UNL     1       9.941   1.478  12.117  1.00  0.00    -0.340 N 
HETATM   12  N   UNL     1       4.701  -2.555  11.549  1.00  0.00    -0.340 N 
HETATM   13  C   UNL     1       6.194  -1.220   7.122  1.00  0.00     0.190 C 
HETATM   14  C   UNL     1      10.622   1.961  10.900  1.00  0.00     0.190 C 
HETATM   15  C   UNL     1       9.591   0.598   7.604  1.00  0.00     0.227 C 
HETATM   16  C   UNL     1       4.999  -1.107  11.551  1.00  0.00     0.190 C 
HETATM   17  C   UNL     1       7.778   0.751  13.139  1.00  0.00     0.227 C 
HETATM   18  C   UNL     1       6.827  -3.099  10.295  1.00  0.00     0.227 C 
HETATM   19  C   UNL     1       8.116   0.215   7.773  1.00  0.00     0.250 C 
HETATM   20  C   UNL     1      10.375   0.889   9.847  1.00  0.00     0.283 C 
HETATM   21  C   UNL     1       8.549   1.640  12.172  1.00  0.00     0.250 C 
HETATM   22  C   UNL     1       5.971  -2.327   8.153  1.00  0.00     0.283 C 
HETATM   23  C   UNL     1       5.463  -3.527  10.880  1.00  0.00     0.250 C 
HETATM   24  C   UNL     1       6.000  -0.808  12.655  1.00  0.00     0.283 C 
HETATM   25  C   UNL     1       8.468  -1.761   6.216  1.00  0.00     0.153 C 
HETATM   26  C   UNL     1      10.715   0.740  13.118  1.00  0.00     0.153 C 
HETATM   27  C   UNL     1       3.528  -3.006  12.298  1.00  0.00     0.153 C 
ENDROOT
BRANCH  15  28
HETATM   28  C   UNL     1       9.787   1.374   6.308  1.00  0.00     0.016 C 
HETATM   29  C   UNL     1       9.865   2.874   6.584  1.00  0.00     0.012 C 
HETATM   30  C   UNL     1      11.042   0.898   5.579  1.00  0.00     0.012 C 
ENDBRANCH  15  28
BRANCH  14  31
HETATM   31  C   UNL     1      12.116   2.232  11.018  1.00  0.00     0.014 C 
HETATM   32  C   UNL     1      12.895   1.189  10.213  1.00  0.00     0.012 C 
BRANCH  31  33
HETATM   33  C   UNL     1      12.493   3.646  10.545  1.00  0.00     0.002 C 
HETATM   34  C   UNL     1      13.190   3.671   9.191  1.00  0.00     0.005 C 
ENDBRANCH  31  33
ENDBRANCH  14  31
BRANCH  13  35
HETATM   35  C   UNL     1       5.571  -1.578   5.773  1.00  0.00     0.014 C 
HETATM   36  C   UNL     1       4.753  -2.866   5.905  1.00  0.00     0.012 C 
BRANCH  35  37
HETATM   37  C   UNL     1       4.681  -0.451   5.219  1.00  0.00     0.002 C 
HETATM   38  C   UNL     1       4.512   0.718   6.179  1.00  0.00     0.005 C 
ENDBRANCH  35  37
ENDBRANCH  13  35
BRANCH  17  39
HETATM   39  C   UNL     1       7.329   1.542  14.354  1.00  0.00     0.016 C 
HETATM   40  C   UNL     1       6.154   2.450  14.000  1.00  0.00     0.012 C 
HETATM   41  C   UNL     1       8.488   2.359  14.921  1.00  0.00     0.012 C 
ENDBRANCH  17  39
BRANCH  18  42
HETATM   42  C   UNL     1       7.667  -4.311   9.891  1.00  0.00     0.016 C 
HETATM   43  C   UNL     1       8.817  -3.891   8.975  1.00  0.00     0.012 C 
HETATM   44  C   UNL     1       8.203  -5.033  11.126  1.00  0.00     0.012 C 
ENDBRANCH  18  42
BRANCH  16  45
HETATM   45  C   UNL     1       3.780  -0.197  11.688  1.00  0.00     0.010 C 
HETATM   46  C   UNL     1       3.842   0.945  10.674  1.00  0.00     0.012 C 
HETATM   47  C   UNL     1       3.675   0.356  13.109  1.00  0.00     0.012 C 
ENDBRANCH  16  45
TORSDOF 8
ENDMDL
MODEL 13
REMARK VINA RESULT:    -6.060      1.615      2.087
REMARK INTER + INTRA:          -8.571
REMARK INTER:                  -9.141
REMARK INTRA:                   0.569
REMARK UNBOUND:                 0.323
REMARK  8 active torsions:
REMARK  status: ('A' for Active; 'I' for Inactive)
REMARK    1  A    between atoms: C_13  and  C_15 
REMARK    2  A    between atoms: C_14  and  C_16 
REMARK    3  A    between atoms: C_15  and  C_22 
REMARK    4  A    between atoms: C_16  and  C_23 
REMARK    5  A    between atoms: C_17  and  C_21 
REMARK    6  A    between atoms: C_18  and  C_24 
REMARK    7  A    between atoms: C_19  and  C_27 
REMARK    8  A    between atoms: C_20  and  C_30 
ROOT
HETATM    1  O   UNL     1       8.443  -0.104   6.652  1.00  0.00    -0.304 OA
HETATM    2  O   UNL     1      10.538   0.243  11.004  1.00  0.00    -0.304 OA
HETATM    3  O   UNL     1       8.302  -3.128  10.726  1.00  0.00    -0.304 OA
HETATM    4  O   UNL     1      10.400  -1.086   8.117  1.00  0.00    -0.270 OA
HETATM    5  O   UNL     1       7.222   0.679   8.448  1.00  0.00    -0.263 OA
HETATM    6  O   UNL     1       7.900  -3.254   8.170  1.00  0.00    -0.270 OA
HETATM    7  O   UNL     1      12.636   0.428  11.933  1.00  0.00    -0.263 OA
HETATM    8  O   UNL     1      10.811   0.092  14.438  1.00  0.00    -0.270 OA
HETATM    9  O   UNL     1       7.821  -2.825  12.962  1.00  0.00    -0.263 OA
HETATM   10  N   UNL     1      11.408   0.947   8.601  1.00  0.00    -0.340 N 
HETATM   11  N   UNL     1       6.048  -1.870   8.368  1.00  0.00    -0.340 N 
HETATM   12  N   UNL     1      10.423  -1.922  13.357  1.00  0.00    -0.340 N 
HETATM   13  C   UNL     1      12.387   0.314   9.516  1.00  0.00     0.190 C 
HETATM   14  C   UNL     1       6.388  -1.178   7.109  1.00  0.00     0.190 C 
HETATM   15  C   UNL     1       9.522   0.806   6.942  1.00  0.00     0.227 C 
HETATM   16  C   UNL     1      10.117  -2.694  12.135  1.00  0.00     0.190 C 
HETATM   17  C   UNL     1       6.911  -3.141  10.340  1.00  0.00     0.227 C 
HETATM   18  C   UNL     1       9.832   0.271  12.249  1.00  0.00     0.227 C 
HETATM   19  C   UNL     1      10.474   0.135   7.939  1.00  0.00     0.250 C 
HETATM   20  C   UNL     1       7.373  -0.085   7.503  1.00  0.00     0.283 C 
HETATM   21  C   UNL     1       6.986  -2.789   8.860  1.00  0.00     0.250 C 
HETATM   22  C   UNL     1      11.893   0.379  10.961  1.00  0.00     0.283 C 
HETATM   23  C   UNL     1      10.416  -0.520  13.440  1.00  0.00     0.250 C 
HETATM   24  C   UNL     1       8.612  -2.886  12.033  1.00  0.00     0.283 C 
HETATM   25  C   UNL     1      11.446   2.411   8.515  1.00  0.00     0.153 C 
HETATM   26  C   UNL     1       4.844  -1.464   9.097  1.00  0.00     0.153 C 
HETATM   27  C   UNL     1      10.758  -2.674  14.567  1.00  0.00     0.153 C 
ENDROOT
BRANCH  15  28
HETATM   28  C   UNL     1      10.243   1.075   5.627  1.00  0.00     0.016 C 
HETATM   29  C   UNL     1      11.019  -0.161   5.176  1.00  0.00     0.012 C 
HETATM   30  C   UNL     1       9.253   1.509   4.548  1.00  0.00     0.012 C 
ENDBRANCH  15  28
BRANCH  14  31
HETATM   31  C   UNL     1       5.229  -0.570   6.332  1.00  0.00     0.014 C 
HETATM   32  C   UNL     1       5.659   0.767   5.723  1.00  0.00     0.012 C 
BRANCH  31  33
HETATM   33  C   UNL     1       4.713  -1.506   5.225  1.00  0.00     0.002 C 
HETATM   34  C   UNL     1       4.708  -2.976   5.623  1.00  0.00     0.005 C 
ENDBRANCH  31  33
ENDBRANCH  14  31
BRANCH  13  35
HETATM   35  C   UNL     1      13.799   0.882   9.381  1.00  0.00     0.014 C 
HETATM   36  C   UNL     1      14.822  -0.149   9.865  1.00  0.00     0.012 C 
BRANCH  35  37
HETATM   37  C   UNL     1      14.127   1.303   7.937  1.00  0.00     0.002 C 
HETATM   38  C   UNL     1      15.133   2.442   7.848  1.00  0.00     0.005 C 
ENDBRANCH  35  37
ENDBRANCH  13  35
BRANCH  17  39
HETATM   39  C   UNL     1       6.325  -4.527  10.534  1.00  0.00     0.016 C 
HETATM   40  C   UNL     1       5.749  -5.055   9.222  1.00  0.00     0.012 C 
HETATM   41  C   UNL     1       5.253  -4.510  11.622  1.00  0.00     0.012 C 
ENDBRANCH  17  39
BRANCH  18  42
HETATM   42  C   UNL     1       9.599   1.738  12.612  1.00  0.00     0.016 C 
HETATM   43  C   UNL     1       9.342   2.572  11.357  1.00  0.00     0.012 C 
HETATM   44  C   UNL     1       8.434   1.873  13.591  1.00  0.00     0.012 C 
ENDBRANCH  18  42
BRANCH  16  45
HETATM   45  C   UNL     1      10.825  -4.043  12.027  1.00  0.00     0.010 C 
HETATM   46  C   UNL     1      11.631  -4.129  10.731  1.00  0.00     0.012 C 
HETATM   47  C   UNL     1       9.819  -5.190  12.108  1.00  0.00     0.012 C 
ENDBRANCH  16  45
TORSDOF 8
ENDMDL
MODEL 14
REMARK VINA RESULT:    -6.048      2.329      6.430
REMARK INTER + INTRA:          -8.554
REMARK INTER:                  -9.076
REMARK INTRA:                   0.522
REMARK UNBOUND:                 0.323
REMARK  8 active torsions:
REMARK  status: ('A' for Active; 'I' for Inactive)
REMARK    1  A    between atoms: C_13  and  C_15 
REMARK    2  A    between atoms: C_14  and  C_16 
REMARK    3  A    between atoms: C_15  and  C_22 
REMARK    4  A    between atoms: C_16  and  C_23 
REMARK    5  A    between atoms: C_17  and  C_21 
REMARK    6  A    between atoms: C_18  and  C_24 
REMARK    7  A    between atoms: C_19  and  C_27 
REMARK    8  A    between atoms: C_20  and  C_30 
ROOT
HETATM    1  O   UNL     1       6.294  -2.326   9.227  1.00  0.00    -0.304 OA
HETATM    2  O   UNL     1      10.503  -0.764  11.043  1.00  0.00    -0.304 OA
HETATM    3  O   UNL     1      10.324  -0.150   7.039  1.00  0.00    -0.304 OA
HETATM    4  O   UNL     1       7.612  -0.138   9.872  1.00  0.00    -0.270 OA
HETATM    5  O   UNL     1       8.178  -3.648   9.043  1.00  0.00    -0.263 OA
HETATM    6  O   UNL     1       7.798  -0.511   6.588  1.00  0.00    -0.270 OA
HETATM    7  O   UNL     1      11.293   0.709  12.625  1.00  0.00    -0.263 OA
HETATM    8  O   UNL     1      13.908  -0.260  11.232  1.00  0.00    -0.270 OA
HETATM    9  O   UNL     1      12.591  -0.578   7.014  1.00  0.00    -0.263 OA
HETATM   10  N   UNL     1       8.058  -0.740  12.067  1.00  0.00    -0.340 N 
HETATM   11  N   UNL     1       8.138  -2.796   6.368  1.00  0.00    -0.340 N 
HETATM   12  N   UNL     1      12.826   0.751   9.448  1.00  0.00    -0.340 N 
HETATM   13  C   UNL     1       8.896   0.461  12.292  1.00  0.00     0.190 C 
HETATM   14  C   UNL     1       6.871  -3.087   7.066  1.00  0.00     0.190 C 
HETATM   15  C   UNL     1       6.525  -2.130  10.636  1.00  0.00     0.227 C 
HETATM   16  C   UNL     1      11.615   0.975   8.631  1.00  0.00     0.190 C 
HETATM   17  C   UNL     1      10.031  -1.188   6.079  1.00  0.00     0.227 C 
HETATM   18  C   UNL     1      11.791  -1.229  10.630  1.00  0.00     0.227 C 
HETATM   19  C   UNL     1       7.447  -0.918  10.817  1.00  0.00     0.250 C 
HETATM   20  C   UNL     1       7.214  -3.077   8.549  1.00  0.00     0.283 C 
HETATM   21  C   UNL     1       8.554  -1.457   6.339  1.00  0.00     0.250 C 
HETATM   22  C   UNL     1      10.372   0.138  12.056  1.00  0.00     0.283 C 
HETATM   23  C   UNL     1      12.929  -0.196  10.481  1.00  0.00     0.250 C 
HETATM   24  C   UNL     1      11.611  -0.008   7.471  1.00  0.00     0.283 C 
HETATM   25  C   UNL     1       7.991  -1.705  13.170  1.00  0.00     0.153 C 
HETATM   26  C   UNL     1       8.952  -3.912   5.880  1.00  0.00     0.153 C 
HETATM   27  C   UNL     1      14.000   1.576   9.160  1.00  0.00     0.153 C 
ENDROOT
BRANCH  15  28
HETATM   28  C   UNL     1       5.170  -1.858  11.276  1.00  0.00     0.016 C 
HETATM   29  C   UNL     1       4.200  -1.266  10.254  1.00  0.00     0.012 C 
HETATM   30  C   UNL     1       4.593  -3.136  11.883  1.00  0.00     0.012 C 
ENDBRANCH  15  28
BRANCH  14  31
HETATM   31  C   UNL     1       6.180  -4.395   6.706  1.00  0.00     0.014 C 
HETATM   32  C   UNL     1       5.334  -4.875   7.887  1.00  0.00     0.012 C 
BRANCH  31  33
HETATM   33  C   UNL     1       5.299  -4.266   5.451  1.00  0.00     0.002 C 
HETATM   34  C   UNL     1       5.453  -5.425   4.476  1.00  0.00     0.005 C 
ENDBRANCH  31  33
ENDBRANCH  14  31
BRANCH  13  35
HETATM   35  C   UNL     1       8.677   1.108  13.658  1.00  0.00     0.014 C 
HETATM   36  C   UNL     1       9.193   2.550  13.639  1.00  0.00     0.012 C 
BRANCH  35  37
HETATM   37  C   UNL     1       7.198   1.092  14.085  1.00  0.00     0.002 C 
HETATM   38  C   UNL     1       6.355   2.161  13.405  1.00  0.00     0.005 C 
ENDBRANCH  35  37
ENDBRANCH  13  35
BRANCH  17  39
HETATM   39  C   UNL     1      10.242  -0.672   4.667  1.00  0.00     0.016 C 
HETATM   40  C   UNL     1      11.481  -1.310   4.043  1.00  0.00     0.012 C 
HETATM   41  C   UNL     1      10.364   0.851   4.665  1.00  0.00     0.012 C 
ENDBRANCH  17  39
BRANCH  18  42
HETATM   42  C   UNL     1      12.191  -2.369  11.568  1.00  0.00     0.016 C 
HETATM   43  C   UNL     1      10.973  -3.214  11.941  1.00  0.00     0.012 C 
HETATM   44  C   UNL     1      13.271  -3.240  10.929  1.00  0.00     0.012 C 
ENDBRANCH  18  42
BRANCH  16  45
HETATM   45  C   UNL     1      11.441   2.400   8.109  1.00  0.00     0.010 C 
HETATM   46  C   UNL     1       9.964   2.712   7.873  1.00  0.00     0.012 C 
HETATM   47  C   UNL     1      12.243   2.608   6.825  1.00  0.00     0.012 C 
ENDBRANCH  16  45
TORSDOF 8
ENDMDL
MODEL 15
REMARK VINA RESULT:    -6.031      2.105      7.964
REMARK INTER + INTRA:          -8.529
REMARK INTER:                  -9.922
REMARK INTRA:                   1.393
REMARK UNBOUND:                 0.323
REMARK  8 active torsions:
REMARK  status: ('A' for Active; 'I' for Inactive)
REMARK    1  A    between atoms: C_13  and  C_15 
REMARK    2  A    between atoms: C_14  and  C_16 
REMARK    3  A    between atoms: C_15  and  C_22 
REMARK    4  A    between atoms: C_16  and  C_23 
REMARK    5  A    between atoms: C_17  and  C_21 
REMARK    6  A    between atoms: C_18  and  C_24 
REMARK    7  A    between atoms: C_19  and  C_27 
REMARK    8  A    between atoms: C_20  and  C_30 
ROOT
HETATM    1  O   UNL     1      10.108  -2.319  10.663  1.00  0.00    -0.304 OA
HETATM    2  O   UNL     1       6.919  -1.357   7.148  1.00  0.00    -0.304 OA
HETATM    3  O   UNL     1      10.092   1.162   6.969  1.00  0.00    -0.304 OA
HETATM    4  O   UNL     1       9.706  -2.582   8.073  1.00  0.00    -0.270 OA
HETATM    5  O   UNL     1       8.614  -0.580  10.923  1.00  0.00    -0.263 OA
HETATM    6  O   UNL     1      11.775  -0.040   8.531  1.00  0.00    -0.270 OA
HETATM    7  O   UNL     1       5.893  -2.403   5.374  1.00  0.00    -0.263 OA
HETATM    8  O   UNL     1       4.953   0.551   5.055  1.00  0.00    -0.270 OA
HETATM    9  O   UNL     1       8.598   2.767   6.252  1.00  0.00    -0.263 OA
HETATM   10  N   UNL     1       7.657  -3.659   8.235  1.00  0.00    -0.340 N 
HETATM   11  N   UNL     1      10.855   1.021  10.378  1.00  0.00    -0.340 N 
HETATM   12  N   UNL     1       7.245   0.807   4.814  1.00  0.00    -0.340 N 
HETATM   13  C   UNL     1       7.459  -3.638   6.767  1.00  0.00     0.190 C 
HETATM   14  C   UNL     1      11.004  -0.199  11.195  1.00  0.00     0.190 C 
HETATM   15  C   UNL     1       9.050  -3.222  10.285  1.00  0.00     0.227 C 
HETATM   16  C   UNL     1       8.628   0.535   5.256  1.00  0.00     0.190 C 
HETATM   17  C   UNL     1      10.549   1.960   8.081  1.00  0.00     0.227 C 
HETATM   18  C   UNL     1       6.267  -0.097   6.962  1.00  0.00     0.227 C 
HETATM   19  C   UNL     1       8.837  -3.119   8.770  1.00  0.00     0.250 C 
HETATM   20  C   UNL     1       9.754  -1.024  10.921  1.00  0.00     0.283 C 
HETATM   21  C   UNL     1      11.140   0.907   9.010  1.00  0.00     0.250 C 
HETATM   22  C   UNL     1       6.625  -2.424   6.355  1.00  0.00     0.283 C 
HETATM   23  C   UNL     1       6.091   0.431   5.521  1.00  0.00     0.250 C 
HETATM   24  C   UNL     1       9.075   1.644   6.196  1.00  0.00     0.283 C 
HETATM   25  C   UNL     1       6.548  -4.188   9.036  1.00  0.00     0.153 C 
HETATM   26  C   UNL     1      10.289   2.223  10.995  1.00  0.00     0.153 C 
HETATM   27  C   UNL     1       7.066   1.517   3.547  1.00  0.00     0.153 C 
ENDROOT
BRANCH  15  28
HETATM   28  C   UNL     1       9.507  -4.626  10.656  1.00  0.00     0.016 C 
HETATM   29  C   UNL     1      11.018  -4.660  10.878  1.00  0.00     0.012 C 
HETATM   30  C   UNL     1       8.772  -5.121  11.901  1.00  0.00     0.012 C 
ENDBRANCH  15  28
BRANCH  14  31
HETATM   31  C   UNL     1      11.169   0.003  12.696  1.00  0.00     0.014 C 
HETATM   32  C   UNL     1      10.041  -0.715  13.441  1.00  0.00     0.012 C 
BRANCH  31  33
HETATM   33  C   UNL     1      12.532  -0.495  13.206  1.00  0.00     0.002 C 
HETATM   34  C   UNL     1      13.311  -1.302  12.176  1.00  0.00     0.005 C 
ENDBRANCH  31  33
ENDBRANCH  14  31
BRANCH  13  35
HETATM   35  C   UNL     1       6.871  -4.935   6.215  1.00  0.00     0.014 C 
HETATM   36  C   UNL     1       5.363  -4.773   6.007  1.00  0.00     0.012 C 
BRANCH  35  37
HETATM   37  C   UNL     1       7.534  -5.366   4.895  1.00  0.00     0.002 C 
HETATM   38  C   UNL     1       7.555  -6.874   4.687  1.00  0.00     0.005 C 
ENDBRANCH  35  37
ENDBRANCH  13  35
BRANCH  17  39
HETATM   39  C   UNL     1      11.619   2.935   7.624  1.00  0.00     0.016 C 
HETATM   40  C   UNL     1      12.401   2.359   6.446  1.00  0.00     0.012 C 
HETATM   41  C   UNL     1      12.560   3.279   8.777  1.00  0.00     0.012 C 
ENDBRANCH  17  39
BRANCH  18  42
HETATM   42  C   UNL     1       4.930  -0.156   7.703  1.00  0.00     0.016 C 
HETATM   43  C   UNL     1       5.141  -0.538   9.168  1.00  0.00     0.012 C 
HETATM   44  C   UNL     1       4.195   1.178   7.598  1.00  0.00     0.012 C 
ENDBRANCH  18  42
BRANCH  16  45
HETATM   45  C   UNL     1       9.645   0.362   4.130  1.00  0.00     0.010 C 
HETATM   46  C   UNL     1      10.751  -0.608   4.545  1.00  0.00     0.012 C 
HETATM   47  C   UNL     1      10.241   1.710   3.727  1.00  0.00     0.012 C 
ENDBRANCH  16  45
TORSDOF 8
ENDMDL
MODEL 16
REMARK VINA RESULT:    -5.944      2.348      7.289
REMARK INTER + INTRA:          -8.402
REMARK INTER:                  -9.398
REMARK INTRA:                   0.996
REMARK UNBOUND:                 0.323
REMARK  8 active torsions:
REMARK  status: ('A' for Active; 'I' for Inactive)
REMARK    1  A    between atoms: C_13  and  C_15 
REMARK    2  A    between atoms: C_14  and  C_16 
REMARK    3  A    between atoms: C_15  and  C_22 
REMARK    4  A    between atoms: C_16  and  C_23 
REMARK    5  A    between atoms: C_17  and  C_21 
REMARK    6  A    between atoms: C_18  and  C_24 
REMARK    7  A    between atoms: C_19  and  C_27 
REMARK    8  A    between atoms: C_20  and  C_30 
ROOT
HETATM    1  O   UNL     1       4.914  -1.180  10.892  1.00  0.00    -0.304 OA
HETATM    2  O   UNL     1       7.966  -2.103   7.247  1.00  0.00    -0.304 OA
HETATM    3  O   UNL     1       9.984  -1.251  10.659  1.00  0.00    -0.304 OA
HETATM    4  O   UNL     1       6.553  -3.014   9.948  1.00  0.00    -0.270 OA
HETATM    5  O   UNL     1       5.896   0.572   9.754  1.00  0.00    -0.263 OA
HETATM    6  O   UNL     1       8.094  -1.444  12.421  1.00  0.00    -0.270 OA
HETATM    7  O   UNL     1       8.452  -3.778   5.745  1.00  0.00    -0.263 OA
HETATM    8  O   UNL     1      10.720  -1.708   5.210  1.00  0.00    -0.270 OA
HETATM    9  O   UNL     1      11.565  -0.252   9.308  1.00  0.00    -0.263 OA
HETATM   10  N   UNL     1       5.603  -3.150   7.836  1.00  0.00    -0.340 N 
HETATM   11  N   UNL     1       7.493   0.768  12.054  1.00  0.00    -0.340 N 
HETATM   12  N   UNL     1      11.157  -2.255   7.420  1.00  0.00    -0.340 N 
HETATM   13  C   UNL     1       6.654  -4.079   7.356  1.00  0.00     0.190 C 
HETATM   14  C   UNL     1       6.061   0.435  12.180  1.00  0.00     0.190 C 
HETATM   15  C   UNL     1       4.508  -1.803   9.657  1.00  0.00     0.227 C 
HETATM   16  C   UNL     1      10.704  -2.485   8.808  1.00  0.00     0.190 C 
HETATM   17  C   UNL     1       9.773  -0.056  11.442  1.00  0.00     0.227 C 
HETATM   18  C   UNL     1       8.959  -1.193   6.766  1.00  0.00     0.227 C 
HETATM   19  C   UNL     1       5.648  -2.703   9.165  1.00  0.00     0.250 C 
HETATM   20  C   UNL     1       5.628  -0.018  10.792  1.00  0.00     0.283 C 
HETATM   21  C   UNL     1       8.395  -0.306  12.042  1.00  0.00     0.250 C 
HETATM   22  C   UNL     1       7.768  -3.309   6.646  1.00  0.00     0.283 C 
HETATM   23  C   UNL     1      10.347  -1.756   6.387  1.00  0.00     0.250 C 
HETATM   24  C   UNL     1      10.833  -1.189   9.593  1.00  0.00     0.283 C 
HETATM   25  C   UNL     1       4.620  -2.705   6.842  1.00  0.00     0.153 C 
HETATM   26  C   UNL     1       7.879   2.159  11.808  1.00  0.00     0.153 C 
HETATM   27  C   UNL     1      12.549  -2.573   7.101  1.00  0.00     0.153 C 
ENDROOT
BRANCH  15  28
HETATM   28  C   UNL     1       3.274  -2.641   9.965  1.00  0.00     0.016 C 
HETATM   29  C   UNL     1       3.612  -3.754  10.956  1.00  0.00     0.012 C 
HETATM   30  C   UNL     1       2.149  -1.763  10.510  1.00  0.00     0.012 C 
ENDBRANCH  15  28
BRANCH  14  31
HETATM   31  C   UNL     1       5.143   1.548  12.668  1.00  0.00     0.014 C 
HETATM   32  C   UNL     1       3.750   1.375  12.058  1.00  0.00     0.012 C 
BRANCH  31  33
HETATM   33  C   UNL     1       5.040   1.590  14.202  1.00  0.00     0.002 C 
HETATM   34  C   UNL     1       5.823   2.733  14.835  1.00  0.00     0.005 C 
ENDBRANCH  31  33
ENDBRANCH  14  31
BRANCH  13  35
HETATM   35  C   UNL     1       6.111  -5.210   6.483  1.00  0.00     0.014 C 
HETATM   36  C   UNL     1       5.109  -6.047   7.282  1.00  0.00     0.012 C 
BRANCH  35  37
HETATM   37  C   UNL     1       5.444  -4.691   5.196  1.00  0.00     0.002 C 
HETATM   38  C   UNL     1       5.446  -5.702   4.059  1.00  0.00     0.005 C 
ENDBRANCH  35  37
ENDBRANCH  13  35
BRANCH  17  39
HETATM   39  C   UNL     1      10.823   0.050  12.532  1.00  0.00     0.016 C 
HETATM   40  C   UNL     1      11.053  -1.308  13.190  1.00  0.00     0.012 C 
HETATM   41  C   UNL     1      10.412   1.089  13.574  1.00  0.00     0.012 C 
ENDBRANCH  17  39
BRANCH  18  42
HETATM   42  C   UNL     1       8.341  -0.406   5.609  1.00  0.00     0.016 C 
HETATM   43  C   UNL     1       6.838  -0.225   5.821  1.00  0.00     0.012 C 
HETATM   44  C   UNL     1       9.026   0.950   5.451  1.00  0.00     0.012 C 
ENDBRANCH  18  42
BRANCH  16  45
HETATM   45  C   UNL     1      11.420  -3.616   9.544  1.00  0.00     0.010 C 
HETATM   46  C   UNL     1      10.423  -4.467  10.329  1.00  0.00     0.012 C 
HETATM   47  C   UNL     1      12.496  -3.059  10.475  1.00  0.00     0.012 C 
ENDBRANCH  16  45
TORSDOF 8
ENDMDL
MODEL 17
REMARK VINA RESULT:    -5.859      2.048      6.842
REMARK INTER + INTRA:          -8.277
REMARK INTER:                  -9.950
REMARK INTRA:                   1.673
REMARK UNBOUND:                 0.323
REMARK  8 active torsions:
REMARK  status: ('A' for Active; 'I' for Inactive)
REMARK    1  A    between atoms: C_13  and  C_15 
REMARK    2  A    between atoms: C_14  and  C_16 
REMARK    3  A    between atoms: C_15  and  C_22 
REMARK    4  A    between atoms: C_16  and  C_23 
REMARK    5  A    between atoms: C_17  and  C_21 
REMARK    6  A    between atoms: C_18  and  C_24 
REMARK    7  A    between atoms: C_19  and  C_27 
REMARK    8  A    between atoms: C_20  and  C_30 
ROOT
HETATM    1  O   UNL     1      11.298   1.922   7.246  1.00  0.00    -0.304 OA
HETATM    2  O   UNL     1       7.703  -1.055   8.537  1.00  0.00    -0.304 OA
HETATM    3  O   UNL     1       9.503   0.556  11.794  1.00  0.00    -0.304 OA
HETATM    4  O   UNL     1       8.831   1.897   8.170  1.00  0.00    -0.270 OA
HETATM    5  O   UNL     1      11.785  -0.232   7.917  1.00  0.00    -0.263 OA
HETATM    6  O   UNL     1      10.867   2.477  10.714  1.00  0.00    -0.270 OA
HETATM    7  O   UNL     1       5.440  -1.321   8.208  1.00  0.00    -0.263 OA
HETATM    8  O   UNL     1       6.082  -3.516  10.326  1.00  0.00    -0.270 OA
HETATM    9  O   UNL     1       9.091  -1.457  12.842  1.00  0.00    -0.263 OA
HETATM   10  N   UNL     1       7.931   0.595   6.474  1.00  0.00    -0.340 N 
HETATM   11  N   UNL     1      12.623   1.022  10.285  1.00  0.00    -0.340 N 
HETATM   12  N   UNL     1       6.653  -1.606  11.509  1.00  0.00    -0.340 N 
HETATM   13  C   UNL     1       6.610   0.527   7.143  1.00  0.00     0.190 C 
HETATM   14  C   UNL     1      12.881   1.665   8.981  1.00  0.00     0.190 C 
HETATM   15  C   UNL     1      10.293   1.448   6.328  1.00  0.00     0.227 C 
HETATM   16  C   UNL     1       7.335  -0.298  11.598  1.00  0.00     0.190 C 
HETATM   17  C   UNL     1      10.924   0.492  12.041  1.00  0.00     0.227 C 
HETATM   18  C   UNL     1       7.859  -2.207   9.370  1.00  0.00     0.227 C 
HETATM   19  C   UNL     1       8.960   1.333   7.077  1.00  0.00     0.250 C 
HETATM   20  C   UNL     1      11.940   0.979   7.999  1.00  0.00     0.283 C 
HETATM   21  C   UNL     1      11.477   1.435  10.979  1.00  0.00     0.250 C 
HETATM   22  C   UNL     1       6.497  -0.746   7.983  1.00  0.00     0.283 C 
HETATM   23  C   UNL     1       6.773  -2.497  10.430  1.00  0.00     0.250 C 
HETATM   24  C   UNL     1       8.729  -0.503  12.170  1.00  0.00     0.283 C 
HETATM   25  C   UNL     1       8.082  -0.192   5.246  1.00  0.00     0.153 C 
HETATM   26  C   UNL     1      13.476  -0.091  10.708  1.00  0.00     0.153 C 
HETATM   27  C   UNL     1       5.792  -1.998  12.624  1.00  0.00     0.153 C 
ENDROOT
BRANCH  15  28
HETATM   28  C   UNL     1      10.182   2.484   5.216  1.00  0.00     0.016 C 
HETATM   29  C   UNL     1       9.272   3.635   5.641  1.00  0.00     0.012 C 
HETATM   30  C   UNL     1      11.563   3.009   4.828  1.00  0.00     0.012 C 
ENDBRANCH  15  28
BRANCH  14  31
HETATM   31  C   UNL     1      14.310   1.595   8.459  1.00  0.00     0.014 C 
HETATM   32  C   UNL     1      14.372   2.177   7.045  1.00  0.00     0.012 C 
BRANCH  31  33
HETATM   33  C   UNL     1      15.303   2.335   9.373  1.00  0.00     0.002 C 
HETATM   34  C   UNL     1      16.249   3.261   8.620  1.00  0.00     0.005 C 
ENDBRANCH  31  33
ENDBRANCH  14  31
BRANCH  13  35
HETATM   35  C   UNL     1       5.433   0.666   6.177  1.00  0.00     0.014 C 
HETATM   36  C   UNL     1       4.170   1.052   6.952  1.00  0.00     0.012 C 
BRANCH  35  37
HETATM   37  C   UNL     1       5.701   1.703   5.071  1.00  0.00     0.002 C 
HETATM   38  C   UNL     1       4.885   1.470   3.808  1.00  0.00     0.005 C 
ENDBRANCH  35  37
ENDBRANCH  13  35
BRANCH  17  39
HETATM   39  C   UNL     1      11.239   1.007  13.433  1.00  0.00     0.016 C 
HETATM   40  C   UNL     1      12.026  -0.034  14.226  1.00  0.00     0.012 C 
HETATM   41  C   UNL     1       9.954   1.383  14.169  1.00  0.00     0.012 C 
ENDBRANCH  17  39
BRANCH  18  42
HETATM   42  C   UNL     1       8.080  -3.411   8.453  1.00  0.00     0.016 C 
HETATM   43  C   UNL     1       8.334  -2.957   7.016  1.00  0.00     0.012 C 
HETATM   44  C   UNL     1       9.242  -4.266   8.957  1.00  0.00     0.012 C 
ENDBRANCH  18  42
BRANCH  16  45
HETATM   45  C   UNL     1       6.591   0.766  12.403  1.00  0.00     0.010 C 
HETATM   46  C   UNL     1       5.156   0.919  11.900  1.00  0.00     0.012 C 
HETATM   47  C   UNL     1       7.324   2.105  12.338  1.00  0.00     0.012 C 
ENDBRANCH  16  45
TORSDOF 8
ENDMDL
MODEL 18
REMARK VINA RESULT:    -5.834      2.146      5.125
REMARK INTER + INTRA:          -8.239
REMARK INTER:                  -9.066
REMARK INTRA:                   0.826
REMARK UNBOUND:                 0.323
REMARK  8 active torsions:
REMARK  status: ('A' for Active; 'I' for Inactive)
REMARK    1  A    between atoms: C_13  and  C_15 
REMARK    2  A    between atoms: C_14  and  C_16 
REMARK    3  A    between atoms: C_15  and  C_22 
REMARK    4  A    between atoms: C_16  and  C_23 
REMARK    5  A    between atoms: C_17  and  C_21 
REMARK    6  A    between atoms: C_18  and  C_24 
REMARK    7  A    between atoms: C_19  and  C_27 
REMARK    8  A    between atoms: C_20  and  C_30 
ROOT
HETATM    1  O   UNL     1      13.266   0.015   8.409  1.00  0.00    -0.304 OA
HETATM    2  O   UNL     1      10.030  -0.998  11.866  1.00  0.00    -0.304 OA
HETATM    3  O   UNL     1       8.226  -0.569   8.261  1.00  0.00    -0.304 OA
HETATM    4  O   UNL     1      11.744  -1.918   9.350  1.00  0.00    -0.270 OA
HETATM    5  O   UNL     1      12.025   1.721   9.346  1.00  0.00    -0.263 OA
HETATM    6  O   UNL     1      10.265  -0.670   6.665  1.00  0.00    -0.270 OA
HETATM    7  O   UNL     1       9.591  -2.620  13.439  1.00  0.00    -0.263 OA
HETATM    8  O   UNL     1       7.093  -0.769  13.657  1.00  0.00    -0.270 OA
HETATM    9  O   UNL     1       6.448   0.340   9.416  1.00  0.00    -0.263 OA
HETATM   10  N   UNL     1      12.526  -1.827  11.532  1.00  0.00    -0.340 N 
HETATM   11  N   UNL     1      10.612   1.610   6.923  1.00  0.00    -0.340 N 
HETATM   12  N   UNL     1       6.895  -1.492  11.463  1.00  0.00    -0.340 N 
HETATM   13  C   UNL     1      11.537  -2.829  11.994  1.00  0.00     0.190 C 
HETATM   14  C   UNL     1      12.076   1.421   6.930  1.00  0.00     0.190 C 
HETATM   15  C   UNL     1      13.629  -0.486   9.711  1.00  0.00     0.227 C 
HETATM   16  C   UNL     1       7.482  -1.756  10.132  1.00  0.00     0.190 C 
HETATM   17  C   UNL     1       8.382   0.592   7.417  1.00  0.00     0.227 C 
HETATM   18  C   UNL     1       8.916  -0.168  12.208  1.00  0.00     0.227 C 
HETATM   19  C   UNL     1      12.547  -1.469  10.176  1.00  0.00     0.250 C 
HETATM   20  C   UNL     1      12.435   1.100   8.374  1.00  0.00     0.283 C 
HETATM   21  C   UNL     1       9.822   0.451   6.941  1.00  0.00     0.250 C 
HETATM   22  C   UNL     1      10.297  -2.138  12.562  1.00  0.00     0.283 C 
HETATM   23  C   UNL     1       7.564  -0.849  12.517  1.00  0.00     0.250 C 
HETATM   24  C   UNL     1       7.290  -0.531   9.253  1.00  0.00     0.283 C 
HETATM   25  C   UNL     1      13.374  -1.223  12.565  1.00  0.00     0.153 C 
HETATM   26  C   UNL     1      10.071   2.966   7.044  1.00  0.00     0.153 C 
HETATM   27  C   UNL     1       5.520  -1.933  11.696  1.00  0.00     0.153 C 
ENDROOT
BRANCH  15  28
HETATM   28  C   UNL     1      14.961  -1.208   9.556  1.00  0.00     0.016 C 
HETATM   29  C   UNL     1      15.173  -1.642   8.106  1.00  0.00     0.012 C 
HETATM   30  C   UNL     1      16.113  -0.321  10.022  1.00  0.00     0.012 C 
ENDBRANCH  15  28
BRANCH  14  31
HETATM   31  C   UNL     1      12.915   2.592   6.438  1.00  0.00     0.014 C 
HETATM   32  C   UNL     1      14.354   2.442   6.937  1.00  0.00     0.012 C 
BRANCH  31  33
HETATM   33  C   UNL     1      12.905   2.716   4.904  1.00  0.00     0.002 C 
HETATM   34  C   UNL     1      14.242   3.149   4.319  1.00  0.00     0.005 C 
ENDBRANCH  31  33
ENDBRANCH  14  31
BRANCH  13  35
HETATM   35  C   UNL     1      12.115  -3.843  12.981  1.00  0.00     0.014 C 
HETATM   36  C   UNL     1      11.766  -3.429  14.413  1.00  0.00     0.012 C 
BRANCH  35  37
HETATM   37  C   UNL     1      11.611  -5.273  12.716  1.00  0.00     0.002 C 
HETATM   38  C   UNL     1      11.228  -5.525  11.265  1.00  0.00     0.005 C 
ENDBRANCH  35  37
ENDBRANCH  13  35
BRANCH  17  39
HETATM   39  C   UNL     1       7.420   0.522   6.245  1.00  0.00     0.016 C 
HETATM   40  C   UNL     1       7.190  -0.927   5.825  1.00  0.00     0.012 C 
HETATM   41  C   UNL     1       7.945   1.344   5.070  1.00  0.00     0.012 C 
ENDBRANCH  17  39
BRANCH  18  42
HETATM   42  C   UNL     1       9.356   0.747  13.351  1.00  0.00     0.016 C 
HETATM   43  C   UNL     1      10.847   1.067  13.244  1.00  0.00     0.012 C 
HETATM   44  C   UNL     1       8.532   2.033  13.361  1.00  0.00     0.012 C 
ENDBRANCH  18  42
BRANCH  16  45
HETATM   45  C   UNL     1       6.944  -2.998   9.424  1.00  0.00     0.010 C 
HETATM   46  C   UNL     1       8.060  -3.711   8.660  1.00  0.00     0.012 C 
HETATM   47  C   UNL     1       5.801  -2.629   8.478  1.00  0.00     0.012 C 
ENDBRANCH  16  45
TORSDOF 8
ENDMDL
MODEL 19
REMARK VINA RESULT:    -5.739      2.653      8.148
REMARK INTER + INTRA:          -8.100
REMARK INTER:                  -8.422
REMARK INTRA:                   0.323
REMARK UNBOUND:                 0.323
REMARK  8 active torsions:
REMARK  status: ('A' for Active; 'I' for Inactive)
REMARK    1  A    between atoms: C_13  and  C_15 
REMARK    2  A    between atoms: C_14  and  C_16 
REMARK    3  A    between atoms: C_15  and  C_22 
REMARK    4  A    between atoms: C_16  and  C_23 
REMARK    5  A    between atoms: C_17  and  C_21 
REMARK    6  A    between atoms: C_18  and  C_24 
REMARK    7  A    between atoms: C_19  and  C_27 
REMARK    8  A    between atoms: C_20  and  C_30 
ROOT
HETATM    1  O   UNL     1       7.586  -5.096  11.942  1.00  0.00    -0.304 OA
HETATM    2  O   UNL     1       8.207  -0.883   9.636  1.00  0.00    -0.304 OA
HETATM    3  O   UNL     1      11.755  -2.752  10.240  1.00  0.00    -0.304 OA
HETATM    4  O   UNL     1       8.117  -4.062   9.578  1.00  0.00    -0.270 OA
HETATM    5  O   UNL     1       8.251  -3.232  13.130  1.00  0.00    -0.263 OA
HETATM    6  O   UNL     1      10.963  -5.133  10.885  1.00  0.00    -0.270 OA
HETATM    7  O   UNL     1       7.525   0.184   7.714  1.00  0.00    -0.263 OA
HETATM    8  O   UNL     1       9.642   2.158   8.872  1.00  0.00    -0.270 OA
HETATM    9  O   UNL     1      12.659  -0.646  10.503  1.00  0.00    -0.263 OA
HETATM   10  N   UNL     1       6.261  -2.675   9.476  1.00  0.00    -0.340 N 
HETATM   11  N   UNL     1      10.761  -4.491  13.106  1.00  0.00    -0.340 N 
HETATM   12  N   UNL     1      10.962   0.288   8.505  1.00  0.00    -0.340 N 
HETATM   13  C   UNL     1       6.715  -2.056   8.209  1.00  0.00     0.190 C 
HETATM   14  C   UNL     1       9.535  -5.297  13.263  1.00  0.00     0.190 C 
HETATM   15  C   UNL     1       6.509  -4.364  11.325  1.00  0.00     0.227 C 
HETATM   16  C   UNL     1      11.199  -1.167   8.613  1.00  0.00     0.190 C 
HETATM   17  C   UNL     1      12.215  -3.205  11.531  1.00  0.00     0.227 C 
HETATM   18  C   UNL     1       9.015   0.197  10.115  1.00  0.00     0.227 C 
HETATM   19  C   UNL     1       7.040  -3.689  10.055  1.00  0.00     0.250 C 
HETATM   20  C   UNL     1       8.397  -4.400  12.795  1.00  0.00     0.283 C 
HETATM   21  C   UNL     1      11.284  -4.378  11.810  1.00  0.00     0.250 C 
HETATM   22  C   UNL     1       7.485  -0.764   8.488  1.00  0.00     0.283 C 
HETATM   23  C   UNL     1       9.885   0.968   9.097  1.00  0.00     0.250 C 
HETATM   24  C   UNL     1      11.972  -1.450   9.891  1.00  0.00     0.283 C 
HETATM   25  C   UNL     1       5.045  -2.117  10.077  1.00  0.00     0.153 C 
HETATM   26  C   UNL     1      11.273  -3.747  14.259  1.00  0.00     0.153 C 
HETATM   27  C   UNL     1      11.918   1.074   7.724  1.00  0.00     0.153 C 
ENDROOT
BRANCH  15  28
HETATM   28  C   UNL     1       5.429  -5.377  10.968  1.00  0.00     0.016 C 
HETATM   29  C   UNL     1       6.007  -6.790  10.929  1.00  0.00     0.012 C 
HETATM   30  C   UNL     1       4.269  -5.301  11.960  1.00  0.00     0.012 C 
ENDBRANCH  15  28
BRANCH  14  31
HETATM   31  C   UNL     1       9.237  -5.818  14.663  1.00  0.00     0.014 C 
HETATM   32  C   UNL     1       7.732  -6.043  14.821  1.00  0.00     0.012 C 
BRANCH  31  33
HETATM   33  C   UNL     1       9.996  -7.119  14.976  1.00  0.00     0.002 C 
HETATM   34  C   UNL     1       9.333  -8.364  14.402  1.00  0.00     0.005 C 
ENDBRANCH  31  33
ENDBRANCH  14  31
BRANCH  13  35
HETATM   35  C   UNL     1       5.586  -1.829   7.205  1.00  0.00     0.014 C 
HETATM   36  C   UNL     1       6.135  -1.139   5.954  1.00  0.00     0.012 C 
BRANCH  35  37
HETATM   37  C   UNL     1       4.880  -3.138   6.809  1.00  0.00     0.002 C 
HETATM   38  C   UNL     1       5.834  -4.226   6.339  1.00  0.00     0.005 C 
ENDBRANCH  35  37
ENDBRANCH  13  35
BRANCH  17  39
HETATM   39  C   UNL     1      13.656  -3.673  11.439  1.00  0.00     0.016 C 
HETATM   40  C   UNL     1      13.752  -5.172  11.712  1.00  0.00     0.012 C 
HETATM   41  C   UNL     1      14.537  -2.893  12.413  1.00  0.00     0.012 C 
ENDBRANCH  17  39
BRANCH  18  42
HETATM   42  C   UNL     1       8.104   1.141  10.900  1.00  0.00     0.016 C 
HETATM   43  C   UNL     1       7.055   0.353  11.684  1.00  0.00     0.012 C 
HETATM   44  C   UNL     1       8.922   2.024  11.840  1.00  0.00     0.012 C 
ENDBRANCH  18  42
BRANCH  16  45
HETATM   45  C   UNL     1      11.915  -1.796   7.419  1.00  0.00     0.010 C 
HETATM   46  C   UNL     1      11.082  -2.932   6.826  1.00  0.00     0.012 C 
HETATM   47  C   UNL     1      13.298  -2.303   7.823  1.00  0.00     0.012 C 
ENDBRANCH  16  45
TORSDOF 8
ENDMDL
