MODEL 1
REMARK VINA RESULT:    -8.277      0.000      0.000
REMARK INTER + INTRA:         -11.549
REMARK INTER:                 -10.738
REMARK INTRA:                  -0.811
REMARK UNBOUND:                -0.369
REMARK  7 active torsions:
REMARK  status: ('A' for Active; 'I' for Inactive)
REMARK    1  A    between atoms: O_3  and  C_13 
REMARK    2  A    between atoms: O_6  and  C_22 
REMARK    3  A    between atoms: N_8  and  CA_17 
REMARK       I    between atoms: N_8  and  C_31 
REMARK    4  A    between atoms: C_14  and  C_31 
REMARK    5  A    between atoms: CA_17  and  CB_20 
REMARK    6  A    between atoms: CA_17  and  C_22 
REMARK    7  A    between atoms: CB_20  and  CG_21 
ROOT
HETATM    1 CL   UNL     1      -1.722  22.384   9.085  1.00  0.00    -0.084 Cl
HETATM    2  O   UNL     1      -3.119  26.523   5.999  1.00  0.00    -0.312 OA
HETATM    3  O   UNL     1      -5.286  26.940   6.509  1.00  0.00    -0.259 OA
HETATM    4  C   UNL     1      -1.983  24.565   6.882  1.00  0.00     0.073 C 
HETATM    5  C   UNL     1      -1.844  26.020   6.459  1.00  0.00     0.132 C 
HETATM    6  C   UNL     1      -3.052  24.495   7.930  1.00  0.00    -0.015 A 
HETATM    7  C   UNL     1      -4.141  25.373   7.860  1.00  0.00     0.081 A 
HETATM    8  C   UNL     1      -5.161  25.309   8.815  1.00  0.00     0.098 A 
HETATM    9  C   UNL     1      -5.093  24.365   9.839  1.00  0.00     0.067 A 
HETATM   10  C   UNL     1      -3.001  23.541   8.951  1.00  0.00     0.042 A 
HETATM   11  C   UNL     1      -4.241  26.349   6.748  1.00  0.00     0.297 C 
HETATM   12  C   UNL     1      -0.849  26.174   5.317  1.00  0.00     0.040 C 
HETATM   13  C   UNL     1      -4.017  23.481   9.906  1.00  0.00     0.044 A 
ENDROOT
BRANCH   9  14
HETATM   14  C   ACE A   0      -6.138  24.277  10.850  1.00  0.00     0.255 C 
HETATM   15  O   UNL     1      -7.329  24.444  10.540  1.00  0.00    -0.268 OA
HETATM   16  N   UNL     1      -5.731  23.978  12.155  1.00  0.00    -0.342 N 
HETATM   17  H   UNL     1      -4.750  23.821  12.362  1.00  0.00     0.163 HD
BRANCH  16  18
HETATM   18  CA  UNL     1      -6.650  23.834  13.262  1.00  0.00     0.186 C 
BRANCH  18  19
HETATM   19  CB  UNL     1      -6.939  22.355  13.552  1.00  0.00     0.074 C 
BRANCH  19  20
HETATM   20  CG  UNL     1      -8.392  21.991  13.363  1.00  0.00    -0.056 A 
HETATM   21  CD1 UNL     1      -9.043  21.263  14.347  1.00  0.00     0.007 A 
HETATM   22  CE1 UNL     1     -10.386  20.927  14.173  1.00  0.00     0.001 A 
HETATM   23  CZ  UNL     1     -11.060  21.323  13.018  1.00  0.00     0.000 A 
HETATM   24  CE2 UNL     1     -10.391  22.056  12.037  1.00  0.00     0.001 A 
HETATM   25  CD2 UNL     1      -9.049  22.392  12.211  1.00  0.00     0.007 A 
ENDBRANCH  19  20
ENDBRANCH  18  19
BRANCH  18  26
HETATM   26  C   UNL     1      -6.111  24.512  14.514  1.00  0.00     0.163 C 
HETATM   27  OXT UNL     1      -4.996  24.284  14.968  1.00  0.00    -0.648 OA
BRANCH  26  28
HETATM   28  O   UNL     1      -6.959  25.399  15.090  1.00  0.00    -0.775 OA
HETATM   29  H   UNL     1      -7.082  25.219  16.046  1.00  0.00     0.167 HD
ENDBRANCH  26  28
ENDBRANCH  18  26
ENDBRANCH  16  18
ENDBRANCH   9  14
BRANCH   8  30
HETATM   30  O   UNL     1      -6.228  26.160   8.785  1.00  0.00    -0.359 OA
HETATM   31  H   UNL     1      -6.528  26.361   9.685  1.00  0.00     0.217 HD
ENDBRANCH   8  30
TORSDOF 7
ENDMDL
MODEL 2
REMARK VINA RESULT:    -7.979      2.200      2.641
REMARK INTER + INTRA:         -11.146
REMARK INTER:                 -10.326
REMARK INTRA:                  -0.820
REMARK UNBOUND:                -0.369
REMARK  7 active torsions:
REMARK  status: ('A' for Active; 'I' for Inactive)
REMARK    1  A    between atoms: O_3  and  C_13 
REMARK    2  A    between atoms: O_6  and  C_22 
REMARK    3  A    between atoms: N_8  and  CA_17 
REMARK       I    between atoms: N_8  and  C_31 
REMARK    4  A    between atoms: C_14  and  C_31 
REMARK    5  A    between atoms: CA_17  and  CB_20 
REMARK    6  A    between atoms: CA_17  and  C_22 
REMARK    7  A    between atoms: CB_20  and  CG_21 
ROOT
HETATM    1 CL   UNL     1      -3.939  25.216   4.831  1.00  0.00    -0.084 Cl
HETATM    2  O   UNL     1       0.272  25.079   8.126  1.00  0.00    -0.312 OA
HETATM    3  O   UNL     1      -0.582  25.413  10.197  1.00  0.00    -0.259 OA
HETATM    4  C   UNL     1      -1.122  25.305   6.149  1.00  0.00     0.073 C 
HETATM    5  C   UNL     1       0.045  24.570   6.793  1.00  0.00     0.132 C 
HETATM    6  C   UNL     1      -2.311  25.146   7.046  1.00  0.00    -0.015 A 
HETATM    7  C   UNL     1      -2.123  25.087   8.432  1.00  0.00     0.081 A 
HETATM    8  C   UNL     1      -3.222  24.962   9.289  1.00  0.00     0.098 A 
HETATM    9  C   UNL     1      -4.510  24.898   8.758  1.00  0.00     0.067 A 
HETATM   10  C   UNL     1      -3.609  25.098   6.525  1.00  0.00     0.042 A 
HETATM   11  C   UNL     1      -0.759  25.199   9.005  1.00  0.00     0.297 C 
HETATM   12  C   UNL     1       1.330  24.765   6.000  1.00  0.00     0.040 C 
HETATM   13  C   UNL     1      -4.704  24.969   7.380  1.00  0.00     0.044 A 
ENDROOT
BRANCH   9  14
HETATM   14  C   ACE A   0      -5.673  24.763   9.625  1.00  0.00     0.255 C 
HETATM   15  O   UNL     1      -6.655  25.512   9.482  1.00  0.00    -0.268 OA
HETATM   16  N   UNL     1      -5.630  23.751  10.589  1.00  0.00    -0.342 N 
HETATM   17  H   UNL     1      -4.821  23.142  10.655  1.00  0.00     0.163 HD
BRANCH  16  18
HETATM   18  CA  UNL     1      -6.714  23.476  11.506  1.00  0.00     0.186 C 
BRANCH  18  19
HETATM   19  CB  UNL     1      -7.168  22.014  11.403  1.00  0.00     0.074 C 
BRANCH  19  20
HETATM   20  CG  UNL     1      -8.403  21.722  12.221  1.00  0.00    -0.056 A 
HETATM   21  CD1 UNL     1      -8.279  21.027  13.414  1.00  0.00     0.007 A 
HETATM   22  CE1 UNL     1      -9.420  20.758  14.169  1.00  0.00     0.001 A 
HETATM   23  CZ  UNL     1     -10.670  21.187  13.723  1.00  0.00     0.000 A 
HETATM   24  CE2 UNL     1     -10.779  21.887  12.521  1.00  0.00     0.001 A 
HETATM   25  CD2 UNL     1      -9.638  22.155  11.765  1.00  0.00     0.007 A 
ENDBRANCH  19  20
ENDBRANCH  18  19
BRANCH  18  26
HETATM   26  C   UNL     1      -6.314  23.796  12.939  1.00  0.00     0.163 C 
HETATM   27  OXT UNL     1      -5.248  23.442  13.429  1.00  0.00    -0.648 OA
BRANCH  26  28
HETATM   28  O   UNL     1      -7.228  24.511  13.638  1.00  0.00    -0.775 OA
HETATM   29  H   UNL     1      -7.640  25.214  13.091  1.00  0.00     0.167 HD
ENDBRANCH  26  28
ENDBRANCH  18  26
ENDBRANCH  16  18
ENDBRANCH   9  14
BRANCH   8  30
HETATM   30  O   UNL     1      -3.072  24.885  10.644  1.00  0.00    -0.359 OA
HETATM   31  H   UNL     1      -3.868  25.210  11.094  1.00  0.00     0.217 HD
ENDBRANCH   8  30
TORSDOF 7
ENDMDL
MODEL 3
REMARK VINA RESULT:    -7.956     11.799     12.994
REMARK INTER + INTRA:         -11.115
REMARK INTER:                 -10.383
REMARK INTRA:                  -0.732
REMARK UNBOUND:                -0.369
REMARK  7 active torsions:
REMARK  status: ('A' for Active; 'I' for Inactive)
REMARK    1  A    between atoms: O_3  and  C_13 
REMARK    2  A    between atoms: O_6  and  C_22 
REMARK    3  A    between atoms: N_8  and  CA_17 
REMARK       I    between atoms: N_8  and  C_31 
REMARK    4  A    between atoms: C_14  and  C_31 
REMARK    5  A    between atoms: CA_17  and  CB_20 
REMARK    6  A    between atoms: CA_17  and  C_22 
REMARK    7  A    between atoms: CB_20  and  CG_21 
ROOT
HETATM    1 CL   UNL     1       7.108  23.167   2.928  1.00  0.00    -0.084 Cl
HETATM    2  O   UNL     1       2.114  24.937   2.200  1.00  0.00    -0.312 OA
HETATM    3  O   UNL     1       0.823  23.076   2.156  1.00  0.00    -0.259 OA
HETATM    4  C   UNL     1       4.538  24.775   2.231  1.00  0.00     0.073 C 
HETATM    5  C   UNL     1       3.320  25.560   2.696  1.00  0.00     0.132 C 
HETATM    6  C   UNL     1       4.375  23.361   2.700  1.00  0.00    -0.015 A 
HETATM    7  C   UNL     1       3.092  22.804   2.767  1.00  0.00     0.081 A 
HETATM    8  C   UNL     1       2.920  21.479   3.179  1.00  0.00     0.098 A 
HETATM    9  C   UNL     1       4.032  20.710   3.523  1.00  0.00     0.067 A 
HETATM   10  C   UNL     1       5.485  22.577   3.031  1.00  0.00     0.042 A 
HETATM   11  C   UNL     1       1.910  23.602   2.360  1.00  0.00     0.297 C 
HETATM   12  C   UNL     1       3.348  26.990   2.174  1.00  0.00     0.040 C 
HETATM   13  C   UNL     1       5.312  21.257   3.446  1.00  0.00     0.044 A 
ENDROOT
BRANCH   9  14
HETATM   14  C   ACE A   0       3.884  19.328   3.960  1.00  0.00     0.255 C 
HETATM   15  O   UNL     1       4.014  19.030   5.159  1.00  0.00    -0.268 OA
HETATM   16  N   UNL     1       3.570  18.383   2.977  1.00  0.00    -0.342 N 
HETATM   17  H   UNL     1       3.444  18.672   2.013  1.00  0.00     0.163 HD
BRANCH  16  18
HETATM   18  CA  UNL     1       3.368  16.980   3.257  1.00  0.00     0.186 C 
BRANCH  18  19
HETATM   19  CB  UNL     1       2.113  16.762   4.112  1.00  0.00     0.074 C 
BRANCH  19  20
HETATM   20  CG  UNL     1       2.337  15.797   5.252  1.00  0.00    -0.056 A 
HETATM   21  CD1 UNL     1       1.473  14.725   5.414  1.00  0.00     0.007 A 
HETATM   22  CE1 UNL     1       1.681  13.833   6.467  1.00  0.00     0.001 A 
HETATM   23  CZ  UNL     1       2.749  14.025   7.343  1.00  0.00     0.000 A 
HETATM   24  CE2 UNL     1       3.610  15.109   7.166  1.00  0.00     0.001 A 
HETATM   25  CD2 UNL     1       3.403  16.000   6.115  1.00  0.00     0.007 A 
ENDBRANCH  19  20
ENDBRANCH  18  19
BRANCH  18  26
HETATM   26  C   UNL     1       3.266  16.173   1.970  1.00  0.00     0.163 C 
HETATM   27  OXT UNL     1       3.223  16.691   0.860  1.00  0.00    -0.648 OA
BRANCH  26  28
HETATM   28  O   UNL     1       3.231  14.829   2.142  1.00  0.00    -0.775 OA
HETATM   29  H   UNL     1       2.313  14.485   2.150  1.00  0.00     0.167 HD
ENDBRANCH  26  28
ENDBRANCH  18  26
ENDBRANCH  16  18
ENDBRANCH   9  14
BRANCH   8  30
HETATM   30  O   UNL     1       1.683  20.909   3.271  1.00  0.00    -0.359 OA
HETATM   31  H   UNL     1       1.343  20.687   2.390  1.00  0.00     0.217 HD
ENDBRANCH   8  30
TORSDOF 7
ENDMDL
MODEL 4
REMARK VINA RESULT:    -7.828      2.762      8.606
REMARK INTER + INTRA:         -10.943
REMARK INTER:                  -9.858
REMARK INTRA:                  -1.085
REMARK UNBOUND:                -0.369
REMARK  7 active torsions:
REMARK  status: ('A' for Active; 'I' for Inactive)
REMARK    1  A    between atoms: O_3  and  C_13 
REMARK    2  A    between atoms: O_6  and  C_22 
REMARK    3  A    between atoms: N_8  and  CA_17 
REMARK       I    between atoms: N_8  and  C_31 
REMARK    4  A    between atoms: C_14  and  C_31 
REMARK    5  A    between atoms: CA_17  and  CB_20 
REMARK    6  A    between atoms: CA_17  and  C_22 
REMARK    7  A    between atoms: CB_20  and  CG_21 
ROOT
HETATM    1 CL   UNL     1      -2.506  23.205  13.978  1.00  0.00    -0.084 Cl
HETATM    2  O   UNL     1      -7.457  23.913  12.082  1.00  0.00    -0.312 OA
HETATM    3  O   UNL     1      -7.183  24.545   9.924  1.00  0.00    -0.259 OA
HETATM    4  C   UNL     1      -5.551  23.704  13.573  1.00  0.00     0.073 C 
HETATM    5  C   UNL     1      -6.925  23.167  13.200  1.00  0.00     0.132 C 
HETATM    6  C   UNL     1      -4.684  23.625  12.353  1.00  0.00    -0.015 A 
HETATM    7  C   UNL     1      -5.258  23.818  11.091  1.00  0.00     0.081 A 
HETATM    8  C   UNL     1      -4.463  23.772   9.941  1.00  0.00     0.098 A 
HETATM    9  C   UNL     1      -3.094  23.535  10.054  1.00  0.00     0.067 A 
HETATM   10  C   UNL     1      -3.307  23.403  12.458  1.00  0.00     0.042 A 
HETATM   11  C   UNL     1      -6.706  24.116  10.967  1.00  0.00     0.297 C 
HETATM   12  C   UNL     1      -7.908  23.306  14.355  1.00  0.00     0.040 C 
HETATM   13  C   UNL     1      -2.516  23.353  11.310  1.00  0.00     0.044 A 
ENDROOT
BRANCH   9  14
HETATM   14  C   ACE A   0      -2.241  23.476   8.874  1.00  0.00     0.255 C 
HETATM   15  O   UNL     1      -1.718  22.404   8.527  1.00  0.00    -0.268 OA
HETATM   16  N   UNL     1      -2.068  24.667   8.159  1.00  0.00    -0.342 N 
HETATM   17  H   UNL     1      -2.535  25.516   8.459  1.00  0.00     0.163 HD
BRANCH  16  18
HETATM   18  CA  UNL     1      -1.273  24.765   6.956  1.00  0.00     0.186 C 
BRANCH  18  19
HETATM   19  CB  UNL     1      -1.764  25.910   6.061  1.00  0.00     0.074 C 
BRANCH  19  20
HETATM   20  CG  UNL     1      -1.931  25.499   4.618  1.00  0.00    -0.056 A 
HETATM   21  CD1 UNL     1      -3.204  25.268   4.121  1.00  0.00     0.007 A 
HETATM   22  CE1 UNL     1      -3.358  24.888   2.787  1.00  0.00     0.001 A 
HETATM   23  CZ  UNL     1      -2.238  24.745   1.968  1.00  0.00     0.000 A 
HETATM   24  CE2 UNL     1      -0.963  24.983   2.483  1.00  0.00     0.001 A 
HETATM   25  CD2 UNL     1      -0.809  25.362   3.816  1.00  0.00     0.007 A 
ENDBRANCH  19  20
ENDBRANCH  18  19
BRANCH  18  26
HETATM   26  C   UNL     1       0.200  24.959   7.287  1.00  0.00     0.163 C 
HETATM   27  OXT UNL     1       0.731  26.063   7.343  1.00  0.00    -0.648 OA
BRANCH  26  28
HETATM   28  O   UNL     1       0.886  23.815   7.522  1.00  0.00    -0.775 OA
HETATM   29  H   UNL     1       1.605  23.677   6.869  1.00  0.00     0.167 HD
ENDBRANCH  26  28
ENDBRANCH  18  26
ENDBRANCH  16  18
ENDBRANCH   9  14
BRANCH   8  30
HETATM   30  O   UNL     1      -4.992  23.941   8.694  1.00  0.00    -0.359 OA
HETATM   31  H   UNL     1      -5.447  24.795   8.629  1.00  0.00     0.217 HD
ENDBRANCH   8  30
TORSDOF 7
ENDMDL
MODEL 5
REMARK VINA RESULT:    -7.523      3.349      8.945
REMARK INTER + INTRA:         -10.531
REMARK INTER:                  -9.507
REMARK INTRA:                  -1.024
REMARK UNBOUND:                -0.369
REMARK  7 active torsions:
REMARK  status: ('A' for Active; 'I' for Inactive)
REMARK    1  A    between atoms: O_3  and  C_13 
REMARK    2  A    between atoms: O_6  and  C_22 
REMARK    3  A    between atoms: N_8  and  CA_17 
REMARK       I    between atoms: N_8  and  C_31 
REMARK    4  A    between atoms: C_14  and  C_31 
REMARK    5  A    between atoms: CA_17  and  CB_20 
REMARK    6  A    between atoms: CA_17  and  C_22 
REMARK    7  A    between atoms: CB_20  and  CG_21 
ROOT
HETATM    1 CL   UNL     1      -7.297  24.830   9.775  1.00  0.00    -0.084 Cl
HETATM    2  O   UNL     1      -4.798  23.405  14.284  1.00  0.00    -0.312 OA
HETATM    3  O   UNL     1      -2.879  22.408  13.611  1.00  0.00    -0.259 OA
HETATM    4  C   UNL     1      -6.509  24.033  12.677  1.00  0.00     0.073 C 
HETATM    5  C   UNL     1      -5.820  24.383  13.988  1.00  0.00     0.132 C 
HETATM    6  C   UNL     1      -5.454  23.951  11.616  1.00  0.00    -0.015 A 
HETATM    7  C   UNL     1      -4.178  23.484  11.952  1.00  0.00     0.081 A 
HETATM    8  C   UNL     1      -3.186  23.377  10.972  1.00  0.00     0.098 A 
HETATM    9  C   UNL     1      -3.471  23.736   9.655  1.00  0.00     0.067 A 
HETATM   10  C   UNL     1      -5.736  24.293  10.289  1.00  0.00     0.042 A 
HETATM   11  C   UNL     1      -3.881  23.058  13.342  1.00  0.00     0.297 C 
HETATM   12  C   UNL     1      -6.805  24.386  15.150  1.00  0.00     0.040 C 
HETATM   13  C   UNL     1      -4.744  24.191   9.314  1.00  0.00     0.044 A 
ENDROOT
BRANCH   9  14
HETATM   14  C   ACE A   0      -2.457  23.640   8.613  1.00  0.00     0.255 C 
HETATM   15  O   UNL     1      -1.846  22.575   8.426  1.00  0.00    -0.268 OA
HETATM   16  N   UNL     1      -2.234  24.785   7.841  1.00  0.00    -0.342 N 
HETATM   17  H   UNL     1      -2.775  25.627   8.007  1.00  0.00     0.163 HD
BRANCH  16  18
HETATM   18  CA  UNL     1      -1.280  24.840   6.756  1.00  0.00     0.186 C 
BRANCH  18  19
HETATM   19  CB  UNL     1      -1.609  25.984   5.788  1.00  0.00     0.074 C 
BRANCH  19  20
HETATM   20  CG  UNL     1      -1.815  25.513   4.368  1.00  0.00    -0.056 A 
HETATM   21  CD1 UNL     1      -3.098  25.228   3.927  1.00  0.00     0.007 A 
HETATM   22  CE1 UNL     1      -3.289  24.792   2.615  1.00  0.00     0.001 A 
HETATM   23  CZ  UNL     1      -2.195  24.648   1.762  1.00  0.00     0.000 A 
HETATM   24  CE2 UNL     1      -0.909  24.940   2.221  1.00  0.00     0.001 A 
HETATM   25  CD2 UNL     1      -0.719  25.374   3.532  1.00  0.00     0.007 A 
ENDBRANCH  19  20
ENDBRANCH  18  19
BRANCH  18  26
HETATM   26  C   UNL     1       0.140  24.998   7.282  1.00  0.00     0.163 C 
HETATM   27  OXT UNL     1       0.699  26.084   7.376  1.00  0.00    -0.648 OA
BRANCH  26  28
HETATM   28  O   UNL     1       0.743  23.841   7.647  1.00  0.00    -0.775 OA
HETATM   29  H   UNL     1       0.998  23.844   8.595  1.00  0.00     0.167 HD
ENDBRANCH  26  28
ENDBRANCH  18  26
ENDBRANCH  16  18
ENDBRANCH   9  14
BRANCH   8  30
HETATM   30  O   UNL     1      -1.926  22.941  11.268  1.00  0.00    -0.359 OA
HETATM   31  H   UNL     1      -1.577  23.408  12.043  1.00  0.00     0.217 HD
ENDBRANCH   8  30
TORSDOF 7
ENDMDL
MODEL 6
REMARK VINA RESULT:    -7.421      4.276      6.862
REMARK INTER + INTRA:         -10.393
REMARK INTER:                  -9.472
REMARK INTRA:                  -0.921
REMARK UNBOUND:                -0.369
REMARK  7 active torsions:
REMARK  status: ('A' for Active; 'I' for Inactive)
REMARK    1  A    between atoms: O_3  and  C_13 
REMARK    2  A    between atoms: O_6  and  C_22 
REMARK    3  A    between atoms: N_8  and  CA_17 
REMARK       I    between atoms: N_8  and  C_31 
REMARK    4  A    between atoms: C_14  and  C_31 
REMARK    5  A    between atoms: CA_17  and  CB_20 
REMARK    6  A    between atoms: CA_17  and  C_22 
REMARK    7  A    between atoms: CB_20  and  CG_21 
ROOT
HETATM    1 CL   UNL     1       0.989  25.262   1.892  1.00  0.00    -0.084 Cl
HETATM    2  O   UNL     1       4.035  22.391   5.221  1.00  0.00    -0.312 OA
HETATM    3  O   UNL     1       3.343  22.960   7.301  1.00  0.00    -0.259 OA
HETATM    4  C   UNL     1       3.212  23.572   3.264  1.00  0.00     0.073 C 
HETATM    5  C   UNL     1       3.680  22.238   3.828  1.00  0.00     0.132 C 
HETATM    6  C   UNL     1       2.071  24.048   4.110  1.00  0.00    -0.015 A 
HETATM    7  C   UNL     1       2.063  23.759   5.480  1.00  0.00     0.081 A 
HETATM    8  C   UNL     1       1.019  24.215   6.291  1.00  0.00     0.098 A 
HETATM    9  C   UNL     1      -0.017  24.962   5.733  1.00  0.00     0.067 A 
HETATM   10  C   UNL     1       1.035  24.813   3.562  1.00  0.00     0.042 A 
HETATM   11  C   UNL     1       3.185  23.003   6.088  1.00  0.00     0.297 C 
HETATM   12  C   UNL     1       4.910  21.725   3.092  1.00  0.00     0.040 C 
HETATM   13  C   UNL     1      -0.008  25.263   4.371  1.00  0.00     0.044 A 
ENDROOT
BRANCH   9  14
HETATM   14  C   ACE A   0      -1.120  25.446   6.552  1.00  0.00     0.255 C 
HETATM   15  O   UNL     1      -1.471  26.637   6.495  1.00  0.00    -0.268 OA
HETATM   16  N   UNL     1      -1.761  24.509   7.369  1.00  0.00    -0.342 N 
HETATM   17  H   UNL     1      -1.462  23.539   7.365  1.00  0.00     0.163 HD
BRANCH  16  18
HETATM   18  CA  UNL     1      -2.885  24.829   8.220  1.00  0.00     0.186 C 
BRANCH  18  19
HETATM   19  CB  UNL     1      -3.733  23.583   8.507  1.00  0.00     0.074 C 
BRANCH  19  20
HETATM   20  CG  UNL     1      -5.019  23.901   9.233  1.00  0.00    -0.056 A 
HETATM   21  CD1 UNL     1      -5.739  25.030   8.875  1.00  0.00     0.007 A 
HETATM   22  CE1 UNL     1      -6.927  25.323   9.546  1.00  0.00     0.001 A 
HETATM   23  CZ  UNL     1      -7.378  24.485  10.565  1.00  0.00     0.000 A 
HETATM   24  CE2 UNL     1      -6.642  23.352  10.913  1.00  0.00     0.001 A 
HETATM   25  CD2 UNL     1      -5.455  23.058  10.243  1.00  0.00     0.007 A 
ENDBRANCH  19  20
ENDBRANCH  18  19
BRANCH  18  26
HETATM   26  C   UNL     1      -2.422  25.455   9.527  1.00  0.00     0.163 C 
HETATM   27  OXT UNL     1      -2.007  24.793  10.473  1.00  0.00    -0.648 OA
BRANCH  26  28
HETATM   28  O   UNL     1      -2.496  26.807   9.569  1.00  0.00    -0.775 OA
HETATM   29  H   UNL     1      -3.383  27.133   9.307  1.00  0.00     0.167 HD
ENDBRANCH  26  28
ENDBRANCH  18  26
ENDBRANCH  16  18
ENDBRANCH   9  14
BRANCH   8  30
HETATM   30  O   UNL     1       0.973  23.936   7.627  1.00  0.00    -0.359 OA
HETATM   31  H   UNL     1       0.174  23.431   7.843  1.00  0.00     0.217 HD
ENDBRANCH   8  30
TORSDOF 7
ENDMDL
MODEL 7
REMARK VINA RESULT:    -7.331      1.716      3.297
REMARK INTER + INTRA:         -10.271
REMARK INTER:                  -9.970
REMARK INTRA:                  -0.301
REMARK UNBOUND:                -0.369
REMARK  7 active torsions:
REMARK  status: ('A' for Active; 'I' for Inactive)
REMARK    1  A    between atoms: O_3  and  C_13 
REMARK    2  A    between atoms: O_6  and  C_22 
REMARK    3  A    between atoms: N_8  and  CA_17 
REMARK       I    between atoms: N_8  and  C_31 
REMARK    4  A    between atoms: C_14  and  C_31 
REMARK    5  A    between atoms: CA_17  and  CB_20 
REMARK    6  A    between atoms: CA_17  and  C_22 
REMARK    7  A    between atoms: CB_20  and  CG_21 
ROOT
HETATM    1 CL   UNL     1      -1.876  23.084  10.517  1.00  0.00    -0.084 Cl
HETATM    2  O   UNL     1      -3.894  26.785   7.226  1.00  0.00    -0.312 OA
HETATM    3  O   UNL     1      -6.141  26.526   7.346  1.00  0.00    -0.259 OA
HETATM    4  C   UNL     1      -2.396  25.202   8.298  1.00  0.00     0.073 C 
HETATM    5  C   UNL     1      -2.625  26.654   7.904  1.00  0.00     0.132 C 
HETATM    6  C   UNL     1      -3.557  24.771   9.142  1.00  0.00    -0.015 A 
HETATM    7  C   UNL     1      -4.828  25.295   8.880  1.00  0.00     0.081 A 
HETATM    8  C   UNL     1      -5.929  24.889   9.641  1.00  0.00     0.098 A 
HETATM    9  C   UNL     1      -5.758  23.955  10.663  1.00  0.00     0.067 A 
HETATM   10  C   UNL     1      -3.399  23.823  10.158  1.00  0.00     0.042 A 
HETATM   11  C   UNL     1      -5.025  26.255   7.766  1.00  0.00     0.297 C 
HETATM   12  C   UNL     1      -1.542  27.148   6.954  1.00  0.00     0.040 C 
HETATM   13  C   UNL     1      -4.497  23.421  10.920  1.00  0.00     0.044 A 
ENDROOT
BRANCH   9  14
HETATM   14  C   ACE A   0      -6.885  23.516  11.475  1.00  0.00     0.255 C 
HETATM   15  O   UNL     1      -7.754  24.327  11.838  1.00  0.00    -0.268 OA
HETATM   16  N   UNL     1      -6.942  22.155  11.795  1.00  0.00    -0.342 N 
HETATM   17  H   UNL     1      -6.228  21.520  11.455  1.00  0.00     0.163 HD
BRANCH  16  18
HETATM   18  CA  UNL     1      -8.008  21.563  12.571  1.00  0.00     0.186 C 
BRANCH  18  19
HETATM   19  CB  UNL     1      -7.676  21.579  14.069  1.00  0.00     0.074 C 
BRANCH  19  20
HETATM   20  CG  UNL     1      -6.366  22.265  14.374  1.00  0.00    -0.056 A 
HETATM   21  CD1 UNL     1      -5.177  21.589  14.153  1.00  0.00     0.007 A 
HETATM   22  CE1 UNL     1      -3.967  22.224  14.435  1.00  0.00     0.001 A 
HETATM   23  CZ  UNL     1      -3.962  23.526  14.934  1.00  0.00     0.000 A 
HETATM   24  CE2 UNL     1      -5.168  24.195  15.150  1.00  0.00     0.001 A 
HETATM   25  CD2 UNL     1      -6.377  23.560  14.869  1.00  0.00     0.007 A 
ENDBRANCH  19  20
ENDBRANCH  18  19
BRANCH  18  26
HETATM   26  C   UNL     1      -9.328  22.279  12.326  1.00  0.00     0.163 C 
HETATM   27  OXT UNL     1     -10.016  22.088  11.329  1.00  0.00    -0.648 OA
BRANCH  26  28
HETATM   28  O   UNL     1      -9.695  23.147  13.300  1.00  0.00    -0.775 OA
HETATM   29  H   UNL     1      -9.588  24.081  13.018  1.00  0.00     0.167 HD
ENDBRANCH  26  28
ENDBRANCH  18  26
ENDBRANCH  16  18
ENDBRANCH   9  14
BRANCH   8  30
HETATM   30  O   UNL     1      -7.179  25.392   9.423  1.00  0.00    -0.359 OA
HETATM   31  H   UNL     1      -7.850  24.700   9.534  1.00  0.00     0.217 HD
ENDBRANCH   8  30
TORSDOF 7
ENDMDL
MODEL 8
REMARK VINA RESULT:    -7.200     11.777     12.985
REMARK INTER + INTRA:         -10.095
REMARK INTER:                 -10.045
REMARK INTRA:                  -0.050
REMARK UNBOUND:                -0.369
REMARK  7 active torsions:
REMARK  status: ('A' for Active; 'I' for Inactive)
REMARK    1  A    between atoms: O_3  and  C_13 
REMARK    2  A    between atoms: O_6  and  C_22 
REMARK    3  A    between atoms: N_8  and  CA_17 
REMARK       I    between atoms: N_8  and  C_31 
REMARK    4  A    between atoms: C_14  and  C_31 
REMARK    5  A    between atoms: CA_17  and  CB_20 
REMARK    6  A    between atoms: CA_17  and  C_22 
REMARK    7  A    between atoms: CB_20  and  CG_21 
ROOT
HETATM    1 CL   UNL     1       7.935  22.267   2.479  1.00  0.00    -0.084 Cl
HETATM    2  O   UNL     1       4.475  25.917   4.299  1.00  0.00    -0.312 OA
HETATM    3  O   UNL     1       2.440  24.934   4.151  1.00  0.00    -0.259 OA
HETATM    4  C   UNL     1       6.447  24.854   3.360  1.00  0.00     0.073 C 
HETATM    5  C   UNL     1       5.897  25.731   4.476  1.00  0.00     0.132 C 
HETATM    6  C   UNL     1       5.683  23.565   3.374  1.00  0.00    -0.015 A 
HETATM    7  C   UNL     1       4.330  23.573   3.738  1.00  0.00     0.081 A 
HETATM    8  C   UNL     1       3.592  22.385   3.735  1.00  0.00     0.098 A 
HETATM    9  C   UNL     1       4.207  21.189   3.367  1.00  0.00     0.067 A 
HETATM   10  C   UNL     1       6.286  22.363   2.991  1.00  0.00     0.042 A 
HETATM   11  C   UNL     1       3.659  24.850   4.087  1.00  0.00     0.297 C 
HETATM   12  C   UNL     1       6.546  27.108   4.471  1.00  0.00     0.040 C 
HETATM   13  C   UNL     1       5.550  21.177   2.993  1.00  0.00     0.044 A 
ENDROOT
BRANCH   9  14
HETATM   14  C   ACE A   0       3.465  19.935   3.359  1.00  0.00     0.255 C 
HETATM   15  O   UNL     1       2.238  19.930   3.166  1.00  0.00    -0.268 OA
HETATM   16  N   UNL     1       4.203  18.762   3.555  1.00  0.00    -0.342 N 
HETATM   17  H   UNL     1       5.209  18.806   3.681  1.00  0.00     0.163 HD
BRANCH  16  18
HETATM   18  CA  UNL     1       3.616  17.441   3.550  1.00  0.00     0.186 C 
BRANCH  18  19
HETATM   19  CB  UNL     1       2.364  17.389   4.436  1.00  0.00     0.074 C 
BRANCH  19  20
HETATM   20  CG  UNL     1       2.323  16.171   5.326  1.00  0.00    -0.056 A 
HETATM   21  CD1 UNL     1       3.163  16.105   6.426  1.00  0.00     0.007 A 
HETATM   22  CE1 UNL     1       3.124  14.978   7.249  1.00  0.00     0.001 A 
HETATM   23  CZ  UNL     1       2.247  13.933   6.960  1.00  0.00     0.000 A 
HETATM   24  CE2 UNL     1       1.407  14.015   5.849  1.00  0.00     0.001 A 
HETATM   25  CD2 UNL     1       1.446  15.140   5.027  1.00  0.00     0.007 A 
ENDBRANCH  19  20
ENDBRANCH  18  19
BRANCH  18  26
HETATM   26  C   UNL     1       3.270  17.001   2.135  1.00  0.00     0.163 C 
HETATM   27  OXT UNL     1       3.651  15.939   1.655  1.00  0.00    -0.648 OA
BRANCH  26  28
HETATM   28  O   UNL     1       2.498  17.872   1.441  1.00  0.00    -0.775 OA
HETATM   29  H   UNL     1       1.547  17.631   1.481  1.00  0.00     0.167 HD
ENDBRANCH  26  28
ENDBRANCH  18  26
ENDBRANCH  16  18
ENDBRANCH   9  14
BRANCH   8  30
HETATM   30  O   UNL     1       2.277  22.355   4.099  1.00  0.00    -0.359 OA
HETATM   31  H   UNL     1       1.819  21.620   3.662  1.00  0.00     0.217 HD
ENDBRANCH   8  30
TORSDOF 7
ENDMDL
MODEL 9
REMARK VINA RESULT:    -7.165     12.159     13.345
REMARK INTER + INTRA:         -10.048
REMARK INTER:                  -9.158
REMARK INTRA:                  -0.889
REMARK UNBOUND:                -0.369
REMARK  7 active torsions:
REMARK  status: ('A' for Active; 'I' for Inactive)
REMARK    1  A    between atoms: O_3  and  C_13 
REMARK    2  A    between atoms: O_6  and  C_22 
REMARK    3  A    between atoms: N_8  and  CA_17 
REMARK       I    between atoms: N_8  and  C_31 
REMARK    4  A    between atoms: C_14  and  C_31 
REMARK    5  A    between atoms: CA_17  and  CB_20 
REMARK    6  A    between atoms: CA_17  and  C_22 
REMARK    7  A    between atoms: CB_20  and  CG_21 
ROOT
HETATM    1 CL   UNL     1       1.082  23.811   3.082  1.00  0.00    -0.084 Cl
HETATM    2  O   UNL     1       6.153  24.779   1.686  1.00  0.00    -0.312 OA
HETATM    3  O   UNL     1       7.351  23.075   2.576  1.00  0.00    -0.259 OA
HETATM    4  C   UNL     1       3.796  25.054   2.207  1.00  0.00     0.073 C 
HETATM    5  C   UNL     1       4.882  25.213   1.152  1.00  0.00     0.132 C 
HETATM    6  C   UNL     1       3.789  23.620   2.640  1.00  0.00    -0.015 A 
HETATM    7  C   UNL     1       4.994  22.908   2.677  1.00  0.00     0.081 A 
HETATM    8  C   UNL     1       5.012  21.575   3.100  1.00  0.00     0.098 A 
HETATM    9  C   UNL     1       3.825  20.955   3.489  1.00  0.00     0.067 A 
HETATM   10  C   UNL     1       2.606  22.994   3.047  1.00  0.00     0.042 A 
HETATM   11  C   UNL     1       6.266  23.575   2.308  1.00  0.00     0.297 C 
HETATM   12  C   UNL     1       5.034  26.668   0.727  1.00  0.00     0.040 C 
HETATM   13  C   UNL     1       2.625  21.663   3.465  1.00  0.00     0.044 A 
ENDROOT
BRANCH   9  14
HETATM   14  C   ACE A   0       3.812  19.566   3.930  1.00  0.00     0.255 C 
HETATM   15  O   UNL     1       4.178  19.268   5.079  1.00  0.00    -0.268 OA
HETATM   16  N   UNL     1       3.352  18.615   3.013  1.00  0.00    -0.342 N 
HETATM   17  H   UNL     1       3.034  18.903   2.093  1.00  0.00     0.163 HD
BRANCH  16  18
HETATM   18  CA  UNL     1       3.257  17.203   3.309  1.00  0.00     0.186 C 
BRANCH  18  19
HETATM   19  CB  UNL     1       1.993  16.893   4.122  1.00  0.00     0.074 C 
BRANCH  19  20
HETATM   20  CG  UNL     1       2.228  15.874   5.211  1.00  0.00    -0.056 A 
HETATM   21  CD1 UNL     1       3.240  16.088   6.134  1.00  0.00     0.007 A 
HETATM   22  CE1 UNL     1       3.457  15.145   7.140  1.00  0.00     0.001 A 
HETATM   23  CZ  UNL     1       2.661  14.003   7.209  1.00  0.00     0.000 A 
HETATM   24  CE2 UNL     1       1.646  13.802   6.273  1.00  0.00     0.001 A 
HETATM   25  CD2 UNL     1       1.429  14.743   5.267  1.00  0.00     0.007 A 
ENDBRANCH  19  20
ENDBRANCH  18  19
BRANCH  18  26
HETATM   26  C   UNL     1       3.270  16.373   2.034  1.00  0.00     0.163 C 
HETATM   27  OXT UNL     1       3.158  16.866   0.916  1.00  0.00    -0.648 OA
BRANCH  26  28
HETATM   28  O   UNL     1       3.421  15.040   2.224  1.00  0.00    -0.775 OA
HETATM   29  H   UNL     1       4.338  14.810   2.488  1.00  0.00     0.167 HD
ENDBRANCH  26  28
ENDBRANCH  18  26
ENDBRANCH  16  18
ENDBRANCH   9  14
BRANCH   8  30
HETATM   30  O   UNL     1       6.166  20.847   3.133  1.00  0.00    -0.359 OA
HETATM   31  H   UNL     1       6.464  20.721   4.048  1.00  0.00     0.217 HD
ENDBRANCH   8  30
TORSDOF 7
ENDMDL
MODEL 10
REMARK VINA RESULT:    -7.155      3.877      6.489
REMARK INTER + INTRA:         -10.033
REMARK INTER:                  -9.086
REMARK INTRA:                  -0.947
REMARK UNBOUND:                -0.369
REMARK  7 active torsions:
REMARK  status: ('A' for Active; 'I' for Inactive)
REMARK    1  A    between atoms: O_3  and  C_13 
REMARK    2  A    between atoms: O_6  and  C_22 
REMARK    3  A    between atoms: N_8  and  CA_17 
REMARK       I    between atoms: N_8  and  C_31 
REMARK    4  A    between atoms: C_14  and  C_31 
REMARK    5  A    between atoms: CA_17  and  CB_20 
REMARK    6  A    between atoms: CA_17  and  C_22 
REMARK    7  A    between atoms: CB_20  and  CG_21 
ROOT
HETATM    1 CL   UNL     1       3.375  23.295   5.165  1.00  0.00    -0.084 Cl
HETATM    2  O   UNL     1       0.957  25.618   0.999  1.00  0.00    -0.312 OA
HETATM    3  O   UNL     1      -1.185  25.943   1.660  1.00  0.00    -0.259 OA
HETATM    4  C   UNL     1       2.506  24.341   2.367  1.00  0.00     0.073 C 
HETATM    5  C   UNL     1       2.341  25.504   1.399  1.00  0.00     0.132 C 
HETATM    6  C   UNL     1       1.581  24.576   3.522  1.00  0.00    -0.015 A 
HETATM    7  C   UNL     1       0.353  25.212   3.301  1.00  0.00     0.081 A 
HETATM    8  C   UNL     1      -0.535  25.420   4.361  1.00  0.00     0.098 A 
HETATM    9  C   UNL     1      -0.195  24.990   5.644  1.00  0.00     0.067 A 
HETATM   10  C   UNL     1       1.905  24.134   4.809  1.00  0.00     0.042 A 
HETATM   11  C   UNL     1      -0.033  25.631   1.931  1.00  0.00     0.297 C 
HETATM   12  C   UNL     1       3.169  25.298   0.138  1.00  0.00     0.040 C 
HETATM   13  C   UNL     1       1.021  24.346   5.867  1.00  0.00     0.044 A 
ENDROOT
BRANCH   9  14
HETATM   14  C   ACE A   0      -1.098  25.196   6.769  1.00  0.00     0.255 C 
HETATM   15  O   UNL     1      -1.673  26.287   6.922  1.00  0.00    -0.268 OA
HETATM   16  N   UNL     1      -1.290  24.113   7.633  1.00  0.00    -0.342 N 
HETATM   17  H   UNL     1      -0.823  23.229   7.457  1.00  0.00     0.163 HD
BRANCH  16  18
HETATM   18  CA  UNL     1      -2.171  24.154   8.778  1.00  0.00     0.186 C 
BRANCH  18  19
HETATM   19  CB  UNL     1      -3.383  23.235   8.576  1.00  0.00     0.074 C 
BRANCH  19  20
HETATM   20  CG  UNL     1      -4.671  23.839   9.081  1.00  0.00    -0.056 A 
HETATM   21  CD1 UNL     1      -5.042  25.104   8.651  1.00  0.00     0.007 A 
HETATM   22  CE1 UNL     1      -6.232  25.663   9.118  1.00  0.00     0.001 A 
HETATM   23  CZ  UNL     1      -7.036  24.950  10.007  1.00  0.00     0.000 A 
HETATM   24  CE2 UNL     1      -6.650  23.677  10.430  1.00  0.00     0.001 A 
HETATM   25  CD2 UNL     1      -5.460  23.119   9.964  1.00  0.00     0.007 A 
ENDBRANCH  19  20
ENDBRANCH  18  19
BRANCH  18  26
HETATM   26  C   UNL     1      -1.433  23.768  10.052  1.00  0.00     0.163 C 
HETATM   27  OXT UNL     1      -1.594  24.350  11.118  1.00  0.00    -0.648 OA
BRANCH  26  28
HETATM   28  O   UNL     1      -0.583  22.720   9.921  1.00  0.00    -0.775 OA
HETATM   29  H   UNL     1      -1.029  21.932   9.544  1.00  0.00     0.167 HD
ENDBRANCH  26  28
ENDBRANCH  18  26
ENDBRANCH  16  18
ENDBRANCH   9  14
BRANCH   8  30
HETATM   30  O   UNL     1      -1.732  26.050   4.183  1.00  0.00    -0.359 OA
HETATM   31  H   UNL     1      -2.461  25.497   4.506  1.00  0.00     0.217 HD
ENDBRANCH   8  30
TORSDOF 7
ENDMDL
MODEL 11
REMARK VINA RESULT:    -7.153      2.211      8.360
REMARK INTER + INTRA:         -10.031
REMARK INTER:                  -9.407
REMARK INTRA:                  -0.625
REMARK UNBOUND:                -0.369
REMARK  7 active torsions:
REMARK  status: ('A' for Active; 'I' for Inactive)
REMARK    1  A    between atoms: O_3  and  C_13 
REMARK    2  A    between atoms: O_6  and  C_22 
REMARK    3  A    between atoms: N_8  and  CA_17 
REMARK       I    between atoms: N_8  and  C_31 
REMARK    4  A    between atoms: C_14  and  C_31 
REMARK    5  A    between atoms: CA_17  and  CB_20 
REMARK    6  A    between atoms: CA_17  and  C_22 
REMARK    7  A    between atoms: CB_20  and  CG_21 
ROOT
HETATM    1 CL   UNL     1      -3.595  22.139  14.520  1.00  0.00    -0.084 Cl
HETATM    2  O   UNL     1      -8.754  22.103  13.110  1.00  0.00    -0.312 OA
HETATM    3  O   UNL     1      -8.942  23.686  11.501  1.00  0.00    -0.259 OA
HETATM    4  C   UNL     1      -6.686  21.828  14.355  1.00  0.00     0.073 C 
HETATM    5  C   UNL     1      -7.900  21.132  13.756  1.00  0.00     0.132 C 
HETATM    6  C   UNL     1      -5.996  22.570  13.251  1.00  0.00    -0.015 A 
HETATM    7  C   UNL     1      -6.758  23.128  12.218  1.00  0.00     0.081 A 
HETATM    8  C   UNL     1      -6.136  23.845  11.191  1.00  0.00     0.098 A 
HETATM    9  C   UNL     1      -4.751  24.005  11.198  1.00  0.00     0.067 A 
HETATM   10  C   UNL     1      -4.609  22.750  13.258  1.00  0.00     0.042 A 
HETATM   11  C   UNL     1      -8.236  23.000  12.228  1.00  0.00     0.297 C 
HETATM   12  C   UNL     1      -8.726  20.435  14.829  1.00  0.00     0.040 C 
HETATM   13  C   UNL     1      -3.989  23.461  12.231  1.00  0.00     0.044 A 
ENDROOT
BRANCH   9  14
HETATM   14  C   ACE A   0      -4.074  24.743  10.140  1.00  0.00     0.255 C 
HETATM   15  O   UNL     1      -2.893  25.103  10.279  1.00  0.00    -0.268 OA
HETATM   16  N   UNL     1      -4.808  24.995   8.976  1.00  0.00    -0.342 N 
HETATM   17  H   UNL     1      -5.761  24.658   8.889  1.00  0.00     0.163 HD
BRANCH  16  18
HETATM   18  CA  UNL     1      -4.269  25.692   7.829  1.00  0.00     0.186 C 
BRANCH  18  19
HETATM   19  CB  UNL     1      -3.811  24.705   6.747  1.00  0.00     0.074 C 
BRANCH  19  20
HETATM   20  CG  UNL     1      -2.380  24.923   6.319  1.00  0.00    -0.056 A 
HETATM   21  CD1 UNL     1      -2.118  25.418   5.051  1.00  0.00     0.007 A 
HETATM   22  CE1 UNL     1      -0.794  25.619   4.657  1.00  0.00     0.001 A 
HETATM   23  CZ  UNL     1       0.248  25.323   5.534  1.00  0.00     0.000 A 
HETATM   24  CE2 UNL     1      -0.032  24.827   6.808  1.00  0.00     0.001 A 
HETATM   25  CD2 UNL     1      -1.354  24.625   7.202  1.00  0.00     0.007 A 
ENDBRANCH  19  20
ENDBRANCH  18  19
BRANCH  18  26
HETATM   26  C   UNL     1      -5.288  26.663   7.249  1.00  0.00     0.163 C 
HETATM   27  OXT UNL     1      -5.152  27.195   6.154  1.00  0.00    -0.648 OA
BRANCH  26  28
HETATM   28  O   UNL     1      -6.367  26.892   8.036  1.00  0.00    -0.775 OA
HETATM   29  H   UNL     1      -6.595  26.109   8.582  1.00  0.00     0.167 HD
ENDBRANCH  26  28
ENDBRANCH  18  26
ENDBRANCH  16  18
ENDBRANCH   9  14
BRANCH   8  30
HETATM   30  O   UNL     1      -6.847  24.389  10.160  1.00  0.00    -0.359 OA
HETATM   31  H   UNL     1      -6.270  24.562   9.401  1.00  0.00     0.217 HD
ENDBRANCH   8  30
TORSDOF 7
ENDMDL
MODEL 12
REMARK VINA RESULT:    -7.102      5.354     11.700
REMARK INTER + INTRA:          -9.961
REMARK INTER:                  -8.943
REMARK INTRA:                  -1.018
REMARK UNBOUND:                -0.369
REMARK  7 active torsions:
REMARK  status: ('A' for Active; 'I' for Inactive)
REMARK    1  A    between atoms: O_3  and  C_13 
REMARK    2  A    between atoms: O_6  and  C_22 
REMARK    3  A    between atoms: N_8  and  CA_17 
REMARK       I    between atoms: N_8  and  C_31 
REMARK    4  A    between atoms: C_14  and  C_31 
REMARK    5  A    between atoms: CA_17  and  CB_20 
REMARK    6  A    between atoms: CA_17  and  C_22 
REMARK    7  A    between atoms: CB_20  and  CG_21 
ROOT
HETATM    1 CL   UNL     1      -4.306  26.635   4.683  1.00  0.00    -0.084 Cl
HETATM    2  O   UNL     1      -3.411  23.789   9.121  1.00  0.00    -0.312 OA
HETATM    3  O   UNL     1      -1.374  22.843   8.821  1.00  0.00    -0.259 OA
HETATM    4  C   UNL     1      -4.505  24.994   7.319  1.00  0.00     0.073 C 
HETATM    5  C   UNL     1      -4.283  24.901   8.822  1.00  0.00     0.132 C 
HETATM    6  C   UNL     1      -3.162  25.112   6.666  1.00  0.00    -0.015 A 
HETATM    7  C   UNL     1      -2.064  24.453   7.231  1.00  0.00     0.081 A 
HETATM    8  C   UNL     1      -0.806  24.530   6.624  1.00  0.00     0.098 A 
HETATM    9  C   UNL     1      -0.647  25.265   5.450  1.00  0.00     0.067 A 
HETATM   10  C   UNL     1      -2.996  25.833   5.479  1.00  0.00     0.042 A 
HETATM   11  C   UNL     1      -2.235  23.632   8.455  1.00  0.00     0.297 C 
HETATM   12  C   UNL     1      -5.592  24.673   9.564  1.00  0.00     0.040 C 
HETATM   13  C   UNL     1      -1.740  25.913   4.877  1.00  0.00     0.044 A 
ENDROOT
BRANCH   9  14
HETATM   14  C   ACE A   0       0.651  25.368   4.798  1.00  0.00     0.255 C 
HETATM   15  O   UNL     1       1.243  26.459   4.742  1.00  0.00    -0.268 OA
HETATM   16  N   UNL     1       1.189  24.189   4.270  1.00  0.00    -0.342 N 
HETATM   17  H   UNL     1       0.687  23.312   4.361  1.00  0.00     0.163 HD
BRANCH  16  18
HETATM   18  CA  UNL     1       2.477  24.124   3.616  1.00  0.00     0.186 C 
BRANCH  18  19
HETATM   19  CB  UNL     1       3.142  22.759   3.839  1.00  0.00     0.074 C 
BRANCH  19  20
HETATM   20  CG  UNL     1       4.650  22.824   3.784  1.00  0.00    -0.056 A 
HETATM   21  CD1 UNL     1       5.327  22.076   2.833  1.00  0.00     0.007 A 
HETATM   22  CE1 UNL     1       6.720  22.136   2.782  1.00  0.00     0.001 A 
HETATM   23  CZ  UNL     1       7.417  22.942   3.682  1.00  0.00     0.000 A 
HETATM   24  CE2 UNL     1       6.721  23.689   4.633  1.00  0.00     0.001 A 
HETATM   25  CD2 UNL     1       5.329  23.629   4.684  1.00  0.00     0.007 A 
ENDBRANCH  19  20
ENDBRANCH  18  19
BRANCH  18  26
HETATM   26  C   UNL     1       2.348  24.400   2.125  1.00  0.00     0.163 C 
HETATM   27  OXT UNL     1       2.825  25.394   1.587  1.00  0.00    -0.648 OA
BRANCH  26  28
HETATM   28  O   UNL     1       1.668  23.458   1.428  1.00  0.00    -0.775 OA
HETATM   29  H   UNL     1       1.953  23.420   0.490  1.00  0.00     0.167 HD
ENDBRANCH  26  28
ENDBRANCH  18  26
ENDBRANCH  16  18
ENDBRANCH   9  14
BRANCH   8  30
HETATM   30  O   UNL     1       0.289  23.913   7.158  1.00  0.00    -0.359 OA
HETATM   31  H   UNL     1       0.037  23.080   7.585  1.00  0.00     0.217 HD
ENDBRANCH   8  30
TORSDOF 7
ENDMDL
MODEL 13
REMARK VINA RESULT:    -7.082      4.073      8.510
REMARK INTER + INTRA:          -9.935
REMARK INTER:                  -9.076
REMARK INTRA:                  -0.860
REMARK UNBOUND:                -0.369
REMARK  7 active torsions:
REMARK  status: ('A' for Active; 'I' for Inactive)
REMARK    1  A    between atoms: O_3  and  C_13 
REMARK    2  A    between atoms: O_6  and  C_22 
REMARK    3  A    between atoms: N_8  and  CA_17 
REMARK       I    between atoms: N_8  and  C_31 
REMARK    4  A    between atoms: C_14  and  C_31 
REMARK    5  A    between atoms: CA_17  and  CB_20 
REMARK    6  A    between atoms: CA_17  and  C_22 
REMARK    7  A    between atoms: CB_20  and  CG_21 
ROOT
HETATM    1 CL   UNL     1      -3.965  22.016  14.133  1.00  0.00    -0.084 Cl
HETATM    2  O   UNL     1      -8.049  23.460  10.996  1.00  0.00    -0.312 OA
HETATM    3  O   UNL     1      -7.219  25.076   9.644  1.00  0.00    -0.259 OA
HETATM    4  C   UNL     1      -6.740  22.584  12.845  1.00  0.00     0.073 C 
HETATM    5  C   UNL     1      -7.772  22.272  11.771  1.00  0.00     0.132 C 
HETATM    6  C   UNL     1      -5.525  23.135  12.163  1.00  0.00    -0.015 A 
HETATM    7  C   UNL     1      -5.678  23.912  11.009  1.00  0.00     0.081 A 
HETATM    8  C   UNL     1      -4.558  24.455  10.371  1.00  0.00     0.098 A 
HETATM    9  C   UNL     1      -3.284  24.221  10.888  1.00  0.00     0.067 A 
HETATM   10  C   UNL     1      -4.244  22.920  12.684  1.00  0.00     0.042 A 
HETATM   11  C   UNL     1      -7.033  24.201  10.479  1.00  0.00     0.297 C 
HETATM   12  C   UNL     1      -9.085  21.803  12.382  1.00  0.00     0.040 C 
HETATM   13  C   UNL     1      -3.128  23.458  12.044  1.00  0.00     0.044 A 
ENDROOT
BRANCH   9  14
HETATM   14  C   ACE A   0      -2.099  24.769  10.243  1.00  0.00     0.255 C 
HETATM   15  O   UNL     1      -2.044  25.975   9.947  1.00  0.00    -0.268 OA
HETATM   16  N   UNL     1      -1.043  23.884  10.002  1.00  0.00    -0.342 N 
HETATM   17  H   UNL     1      -1.116  22.912  10.285  1.00  0.00     0.163 HD
BRANCH  16  18
HETATM   18  CA  UNL     1       0.207  24.280   9.392  1.00  0.00     0.186 C 
BRANCH  18  19
HETATM   19  CB  UNL     1       1.377  23.456   9.944  1.00  0.00     0.074 C 
BRANCH  19  20
HETATM   20  CG  UNL     1       2.113  24.153  11.063  1.00  0.00    -0.056 A 
HETATM   21  CD1 UNL     1       3.404  23.758  11.377  1.00  0.00     0.007 A 
HETATM   22  CE1 UNL     1       4.083  24.404  12.411  1.00  0.00     0.001 A 
HETATM   23  CZ  UNL     1       3.464  25.434  13.117  1.00  0.00     0.000 A 
HETATM   24  CE2 UNL     1       2.164  25.822  12.788  1.00  0.00     0.001 A 
HETATM   25  CD2 UNL     1       1.484  25.177  11.755  1.00  0.00     0.007 A 
ENDBRANCH  19  20
ENDBRANCH  18  19
BRANCH  18  26
HETATM   26  C   UNL     1       0.145  24.145   7.878  1.00  0.00     0.163 C 
HETATM   27  OXT UNL     1      -0.890  24.294   7.237  1.00  0.00    -0.648 OA
BRANCH  26  28
HETATM   28  O   UNL     1       1.327  23.852   7.284  1.00  0.00    -0.775 OA
HETATM   29  H   UNL     1       1.701  23.006   7.612  1.00  0.00     0.167 HD
ENDBRANCH  26  28
ENDBRANCH  18  26
ENDBRANCH  16  18
ENDBRANCH   9  14
BRANCH   8  30
HETATM   30  O   UNL     1      -4.671  25.203   9.234  1.00  0.00    -0.359 OA
HETATM   31  H   UNL     1      -5.520  25.035   8.798  1.00  0.00     0.217 HD
ENDBRANCH   8  30
TORSDOF 7
ENDMDL
MODEL 14
REMARK VINA RESULT:    -7.037      1.751      2.582
REMARK INTER + INTRA:          -9.874
REMARK INTER:                  -9.121
REMARK INTRA:                  -0.753
REMARK UNBOUND:                -0.369
REMARK  7 active torsions:
REMARK  status: ('A' for Active; 'I' for Inactive)
REMARK    1  A    between atoms: O_3  and  C_13 
REMARK    2  A    between atoms: O_6  and  C_22 
REMARK    3  A    between atoms: N_8  and  CA_17 
REMARK       I    between atoms: N_8  and  C_31 
REMARK    4  A    between atoms: C_14  and  C_31 
REMARK    5  A    between atoms: CA_17  and  CB_20 
REMARK    6  A    between atoms: CA_17  and  C_22 
REMARK    7  A    between atoms: CB_20  and  CG_21 
ROOT
HETATM    1 CL   UNL     1       0.315  25.341   8.292  1.00  0.00    -0.084 Cl
HETATM    2  O   UNL     1      -2.217  25.680   3.593  1.00  0.00    -0.312 OA
HETATM    3  O   UNL     1      -4.346  25.032   4.016  1.00  0.00    -0.259 OA
HETATM    4  C   UNL     1      -0.490  25.478   5.289  1.00  0.00     0.073 C 
HETATM    5  C   UNL     1      -1.013  26.288   4.112  1.00  0.00     0.132 C 
HETATM    6  C   UNL     1      -1.587  25.394   6.307  1.00  0.00    -0.015 A 
HETATM    7  C   UNL     1      -2.919  25.336   5.877  1.00  0.00     0.081 A 
HETATM    8  C   UNL     1      -3.956  25.233   6.809  1.00  0.00     0.098 A 
HETATM    9  C   UNL     1      -3.662  25.185   8.171  1.00  0.00     0.067 A 
HETATM   10  C   UNL     1      -1.301  25.328   7.675  1.00  0.00     0.042 A 
HETATM   11  C   UNL     1      -3.236  25.342   4.428  1.00  0.00     0.297 C 
HETATM   12  C   UNL     1       0.003  26.338   2.978  1.00  0.00     0.040 C 
HETATM   13  C   UNL     1      -2.337  25.230   8.603  1.00  0.00     0.044 A 
ENDROOT
BRANCH   9  14
HETATM   14  C   ACE A   0      -4.722  25.083   9.166  1.00  0.00     0.255 C 
HETATM   15  O   UNL     1      -5.702  25.844   9.121  1.00  0.00    -0.268 OA
HETATM   16  N   UNL     1      -4.583  24.085  10.137  1.00  0.00    -0.342 N 
HETATM   17  H   UNL     1      -3.781  23.464  10.122  1.00  0.00     0.163 HD
BRANCH  16  18
HETATM   18  CA  UNL     1      -5.561  23.842  11.175  1.00  0.00     0.186 C 
BRANCH  18  19
HETATM   19  CB  UNL     1      -6.401  22.597  10.862  1.00  0.00     0.074 C 
BRANCH  19  20
HETATM   20  CG  UNL     1      -7.511  22.371  11.860  1.00  0.00    -0.056 A 
HETATM   21  CD1 UNL     1      -8.563  23.271  11.922  1.00  0.00     0.007 A 
HETATM   22  CE1 UNL     1      -9.589  23.061  12.845  1.00  0.00     0.001 A 
HETATM   23  CZ  UNL     1      -9.549  21.955  13.692  1.00  0.00     0.000 A 
HETATM   24  CE2 UNL     1      -8.484  21.057  13.617  1.00  0.00     0.001 A 
HETATM   25  CD2 UNL     1      -7.459  21.266  12.696  1.00  0.00     0.007 A 
ENDBRANCH  19  20
ENDBRANCH  18  19
BRANCH  18  26
HETATM   26  C   UNL     1      -4.891  23.689  12.533  1.00  0.00     0.163 C 
HETATM   27  OXT UNL     1      -3.811  23.130  12.685  1.00  0.00    -0.648 OA
BRANCH  26  28
HETATM   28  O   UNL     1      -5.579  24.226  13.570  1.00  0.00    -0.775 OA
HETATM   29  H   UNL     1      -5.579  23.636  14.354  1.00  0.00     0.167 HD
ENDBRANCH  26  28
ENDBRANCH  18  26
ENDBRANCH  16  18
ENDBRANCH   9  14
BRANCH   8  30
HETATM   30  O   UNL     1      -5.266  25.192   6.425  1.00  0.00    -0.359 OA
HETATM   31  H   UNL     1      -5.746  24.513   6.925  1.00  0.00     0.217 HD
ENDBRANCH   8  30
TORSDOF 7
ENDMDL
MODEL 15
REMARK VINA RESULT:    -7.030      5.040      9.465
REMARK INTER + INTRA:          -9.865
REMARK INTER:                  -8.821
REMARK INTRA:                  -1.043
REMARK UNBOUND:                -0.369
REMARK  7 active torsions:
REMARK  status: ('A' for Active; 'I' for Inactive)
REMARK    1  A    between atoms: O_3  and  C_13 
REMARK    2  A    between atoms: O_6  and  C_22 
REMARK    3  A    between atoms: N_8  and  CA_17 
REMARK       I    between atoms: N_8  and  C_31 
REMARK    4  A    between atoms: C_14  and  C_31 
REMARK    5  A    between atoms: CA_17  and  CB_20 
REMARK    6  A    between atoms: CA_17  and  C_22 
REMARK    7  A    between atoms: CB_20  and  CG_21 
ROOT
HETATM    1 CL   UNL     1      -4.595  23.862   7.647  1.00  0.00    -0.084 Cl
HETATM    2  O   UNL     1      -5.758  23.080  12.809  1.00  0.00    -0.312 OA
HETATM    3  O   UNL     1      -3.754  22.887  13.847  1.00  0.00    -0.259 OA
HETATM    4  C   UNL     1      -5.904  23.178  10.386  1.00  0.00     0.073 C 
HETATM    5  C   UNL     1      -6.497  23.650  11.706  1.00  0.00     0.132 C 
HETATM    6  C   UNL     1      -4.455  23.558  10.376  1.00  0.00    -0.015 A 
HETATM    7  C   UNL     1      -3.735  23.552  11.578  1.00  0.00     0.081 A 
HETATM    8  C   UNL     1      -2.376  23.881  11.587  1.00  0.00     0.098 A 
HETATM    9  C   UNL     1      -1.735  24.214  10.394  1.00  0.00     0.067 A 
HETATM   10  C   UNL     1      -3.799  23.878   9.183  1.00  0.00     0.042 A 
HETATM   11  C   UNL     1      -4.400  23.155  12.843  1.00  0.00     0.297 C 
HETATM   12  C   UNL     1      -7.949  23.213  11.850  1.00  0.00     0.040 C 
HETATM   13  C   UNL     1      -2.444  24.211   9.194  1.00  0.00     0.044 A 
ENDROOT
BRANCH   9  14
HETATM   14  C   ACE A   0      -0.321  24.566  10.374  1.00  0.00     0.255 C 
HETATM   15  O   UNL     1       0.160  25.292  11.259  1.00  0.00    -0.268 OA
HETATM   16  N   UNL     1       0.448  24.030   9.335  1.00  0.00    -0.342 N 
HETATM   17  H   UNL     1       0.023  23.418   8.647  1.00  0.00     0.163 HD
BRANCH  16  18
HETATM   18  CA  UNL     1       1.867  24.267   9.192  1.00  0.00     0.186 C 
BRANCH  18  19
HETATM   19  CB  UNL     1       2.680  23.288  10.050  1.00  0.00     0.074 C 
BRANCH  19  20
HETATM   20  CG  UNL     1       3.599  23.983  11.025  1.00  0.00    -0.056 A 
HETATM   21  CD1 UNL     1       3.687  25.367  11.006  1.00  0.00     0.007 A 
HETATM   22  CE1 UNL     1       4.537  26.009  11.908  1.00  0.00     0.001 A 
HETATM   23  CZ  UNL     1       5.286  25.261  12.815  1.00  0.00     0.000 A 
HETATM   24  CE2 UNL     1       5.186  23.869  12.822  1.00  0.00     0.001 A 
HETATM   25  CD2 UNL     1       4.338  23.227  11.921  1.00  0.00     0.007 A 
ENDBRANCH  19  20
ENDBRANCH  18  19
BRANCH  18  26
HETATM   26  C   UNL     1       2.296  24.160   7.735  1.00  0.00     0.163 C 
HETATM   27  OXT UNL     1       3.444  24.372   7.361  1.00  0.00    -0.648 OA
BRANCH  26  28
HETATM   28  O   UNL     1       1.311  23.805   6.876  1.00  0.00    -0.775 OA
HETATM   29  H   UNL     1       0.566  24.444   6.889  1.00  0.00     0.167 HD
ENDBRANCH  26  28
ENDBRANCH  18  26
ENDBRANCH  16  18
ENDBRANCH   9  14
BRANCH   8  30
HETATM   30  O   UNL     1      -1.649  23.900  12.743  1.00  0.00    -0.359 OA
HETATM   31  H   UNL     1      -2.060  24.490  13.394  1.00  0.00     0.217 HD
ENDBRANCH   8  30
TORSDOF 7
ENDMDL
MODEL 16
REMARK VINA RESULT:    -6.870      3.404      9.626
REMARK INTER + INTRA:          -9.649
REMARK INTER:                  -8.427
REMARK INTRA:                  -1.221
REMARK UNBOUND:                -0.369
REMARK  7 active torsions:
REMARK  status: ('A' for Active; 'I' for Inactive)
REMARK    1  A    between atoms: O_3  and  C_13 
REMARK    2  A    between atoms: O_6  and  C_22 
REMARK    3  A    between atoms: N_8  and  CA_17 
REMARK       I    between atoms: N_8  and  C_31 
REMARK    4  A    between atoms: C_14  and  C_31 
REMARK    5  A    between atoms: CA_17  and  CB_20 
REMARK    6  A    between atoms: CA_17  and  C_22 
REMARK    7  A    between atoms: CB_20  and  CG_21 
ROOT
HETATM    1 CL   UNL     1      -0.932  23.549   8.947  1.00  0.00    -0.084 Cl
HETATM    2  O   UNL     1      -6.043  24.904   9.751  1.00  0.00    -0.312 OA
HETATM    3  O   UNL     1      -6.506  26.450   8.161  1.00  0.00    -0.259 OA
HETATM    4  C   UNL     1      -3.777  24.095  10.083  1.00  0.00     0.073 C 
HETATM    5  C   UNL     1      -5.258  23.748  10.121  1.00  0.00     0.132 C 
HETATM    6  C   UNL     1      -3.462  24.599   8.707  1.00  0.00    -0.015 A 
HETATM    7  C   UNL     1      -4.430  25.327   8.005  1.00  0.00     0.081 A 
HETATM    8  C   UNL     1      -4.149  25.827   6.729  1.00  0.00     0.098 A 
HETATM    9  C   UNL     1      -2.897  25.600   6.157  1.00  0.00     0.067 A 
HETATM   10  C   UNL     1      -2.204  24.391   8.131  1.00  0.00     0.042 A 
HETATM   11  C   UNL     1      -5.747  25.610   8.626  1.00  0.00     0.297 C 
HETATM   12  C   UNL     1      -5.694  23.324  11.517  1.00  0.00     0.040 C 
HETATM   13  C   UNL     1      -1.926  24.887   6.857  1.00  0.00     0.044 A 
ENDROOT
BRANCH   9  14
HETATM   14  C   ACE A   0      -2.576  26.105   4.828  1.00  0.00     0.255 C 
HETATM   15  O   UNL     1      -3.032  27.194   4.441  1.00  0.00    -0.268 OA
HETATM   16  N   UNL     1      -1.726  25.320   4.042  1.00  0.00    -0.342 N 
HETATM   17  H   UNL     1      -1.352  24.449   4.406  1.00  0.00     0.163 HD
BRANCH  16  18
HETATM   18  CA  UNL     1      -1.297  25.695   2.714  1.00  0.00     0.186 C 
BRANCH  18  19
HETATM   19  CB  UNL     1       0.224  25.893   2.660  1.00  0.00     0.074 C 
BRANCH  19  20
HETATM   20  CG  UNL     1       0.915  25.494   3.941  1.00  0.00    -0.056 A 
HETATM   21  CD1 UNL     1       1.077  26.433   4.947  1.00  0.00     0.007 A 
HETATM   22  CE1 UNL     1       1.716  26.063   6.131  1.00  0.00     0.001 A 
HETATM   23  CZ  UNL     1       2.184  24.760   6.294  1.00  0.00     0.000 A 
HETATM   24  CE2 UNL     1       2.013  23.825   5.272  1.00  0.00     0.001 A 
HETATM   25  CD2 UNL     1       1.375  24.194   4.088  1.00  0.00     0.007 A 
ENDBRANCH  19  20
ENDBRANCH  18  19
BRANCH  18  26
HETATM   26  C   UNL     1      -1.722  24.656   1.686  1.00  0.00     0.163 C 
HETATM   27  OXT UNL     1      -2.866  24.575   1.254  1.00  0.00    -0.648 OA
BRANCH  26  28
HETATM   28  O   UNL     1      -0.734  23.825   1.275  1.00  0.00    -0.775 OA
HETATM   29  H   UNL     1      -0.160  23.542   2.019  1.00  0.00     0.167 HD
ENDBRANCH  26  28
ENDBRANCH  18  26
ENDBRANCH  16  18
ENDBRANCH   9  14
BRANCH   8  30
HETATM   30  O   UNL     1      -5.075  26.526   6.011  1.00  0.00    -0.359 OA
HETATM   31  H   UNL     1      -5.116  26.200   5.098  1.00  0.00     0.217 HD
ENDBRANCH   8  30
TORSDOF 7
ENDMDL
MODEL 17
REMARK VINA RESULT:    -6.651      6.806     10.595
REMARK INTER + INTRA:          -9.353
REMARK INTER:                  -8.441
REMARK INTRA:                  -0.913
REMARK UNBOUND:                -0.369
REMARK  7 active torsions:
REMARK  status: ('A' for Active; 'I' for Inactive)
REMARK    1  A    between atoms: O_3  and  C_13 
REMARK    2  A    between atoms: O_6  and  C_22 
REMARK    3  A    between atoms: N_8  and  CA_17 
REMARK       I    between atoms: N_8  and  C_31 
REMARK    4  A    between atoms: C_14  and  C_31 
REMARK    5  A    between atoms: CA_17  and  CB_20 
REMARK    6  A    between atoms: CA_17  and  C_22 
REMARK    7  A    between atoms: CB_20  and  CG_21 
ROOT
HETATM    1 CL   UNL     1       4.002  19.866   3.529  1.00  0.00    -0.084 Cl
HETATM    2  O   UNL     1       7.028  24.210   2.772  1.00  0.00    -0.312 OA
HETATM    3  O   UNL     1       5.607  25.799   2.006  1.00  0.00    -0.259 OA
HETATM    4  C   UNL     1       6.298  21.910   3.047  1.00  0.00     0.073 C 
HETATM    5  C   UNL     1       7.191  23.022   3.578  1.00  0.00     0.132 C 
HETATM    6  C   UNL     1       4.889  22.422   3.039  1.00  0.00    -0.015 A 
HETATM    7  C   UNL     1       4.653  23.776   2.776  1.00  0.00     0.081 A 
HETATM    8  C   UNL     1       3.345  24.270   2.741  1.00  0.00     0.098 A 
HETATM    9  C   UNL     1       2.272  23.407   2.967  1.00  0.00     0.067 A 
HETATM   10  C   UNL     1       3.806  21.561   3.248  1.00  0.00     0.042 A 
HETATM   11  C   UNL     1       5.786  24.690   2.491  1.00  0.00     0.297 C 
HETATM   12  C   UNL     1       8.661  22.627   3.523  1.00  0.00     0.040 C 
HETATM   13  C   UNL     1       2.502  22.055   3.218  1.00  0.00     0.044 A 
ENDROOT
BRANCH   9  14
HETATM   14  C   ACE A   0       0.899  23.893   2.941  1.00  0.00     0.255 C 
HETATM   15  O   UNL     1       0.090  23.451   2.108  1.00  0.00    -0.268 OA
HETATM   16  N   UNL     1       0.548  24.847   3.902  1.00  0.00    -0.342 N 
HETATM   17  H   UNL     1       1.230  25.162   4.584  1.00  0.00     0.163 HD
BRANCH  16  18
HETATM   18  CA  UNL     1      -0.780  25.407   4.020  1.00  0.00     0.186 C 
BRANCH  18  19
HETATM   19  CB  UNL     1      -1.011  25.993   5.420  1.00  0.00     0.074 C 
BRANCH  19  20
HETATM   20  CG  UNL     1      -2.162  25.341   6.148  1.00  0.00    -0.056 A 
HETATM   21  CD1 UNL     1      -1.906  24.574   7.274  1.00  0.00     0.007 A 
HETATM   22  CE1 UNL     1      -2.970  23.972   7.947  1.00  0.00     0.001 A 
HETATM   23  CZ  UNL     1      -4.275  24.146   7.486  1.00  0.00     0.000 A 
HETATM   24  CE2 UNL     1      -4.516  24.922   6.351  1.00  0.00     0.001 A 
HETATM   25  CD2 UNL     1      -3.453  25.523   5.678  1.00  0.00     0.007 A 
ENDBRANCH  19  20
ENDBRANCH  18  19
BRANCH  18  26
HETATM   26  C   UNL     1      -1.020  26.476   2.964  1.00  0.00     0.163 C 
HETATM   27  OXT UNL     1      -2.084  27.076   2.852  1.00  0.00    -0.648 OA
BRANCH  26  28
HETATM   28  O   UNL     1       0.038  26.724   2.155  1.00  0.00    -0.775 OA
HETATM   29  H   UNL     1       0.409  27.620   2.302  1.00  0.00     0.167 HD
ENDBRANCH  26  28
ENDBRANCH  18  26
ENDBRANCH  16  18
ENDBRANCH   9  14
BRANCH   8  30
HETATM   30  O   UNL     1       3.080  25.588   2.504  1.00  0.00    -0.359 OA
HETATM   31  H   UNL     1       2.176  25.699   2.169  1.00  0.00     0.217 HD
ENDBRANCH   8  30
TORSDOF 7
ENDMDL
MODEL 18
REMARK VINA RESULT:    -6.628      3.534      5.848
REMARK INTER + INTRA:          -9.321
REMARK INTER:                  -8.953
REMARK INTRA:                  -0.369
REMARK UNBOUND:                -0.369
REMARK  7 active torsions:
REMARK  status: ('A' for Active; 'I' for Inactive)
REMARK    1  A    between atoms: O_3  and  C_13 
REMARK    2  A    between atoms: O_6  and  C_22 
REMARK    3  A    between atoms: N_8  and  CA_17 
REMARK       I    between atoms: N_8  and  C_31 
REMARK    4  A    between atoms: C_14  and  C_31 
REMARK    5  A    between atoms: CA_17  and  CB_20 
REMARK    6  A    between atoms: CA_17  and  C_22 
REMARK    7  A    between atoms: CB_20  and  CG_21 
ROOT
HETATM    1 CL   UNL     1       0.045  25.240   3.290  1.00  0.00    -0.084 Cl
HETATM    2  O   UNL     1       3.421  23.392   7.003  1.00  0.00    -0.312 OA
HETATM    3  O   UNL     1       2.513  23.999   8.988  1.00  0.00    -0.259 OA
HETATM    4  C   UNL     1       2.485  24.186   4.907  1.00  0.00     0.073 C 
HETATM    5  C   UNL     1       3.183  23.038   5.623  1.00  0.00     0.132 C 
HETATM    6  C   UNL     1       1.226  24.493   5.658  1.00  0.00    -0.015 A 
HETATM    7  C   UNL     1       1.201  24.339   7.049  1.00  0.00     0.081 A 
HETATM    8  C   UNL     1       0.043  24.642   7.772  1.00  0.00     0.098 A 
HETATM    9  C   UNL     1      -1.091  25.102   7.103  1.00  0.00     0.067 A 
HETATM   10  C   UNL     1       0.088  24.971   4.998  1.00  0.00     0.042 A 
HETATM   11  C   UNL     1       2.417  23.893   7.772  1.00  0.00     0.297 C 
HETATM   12  C   UNL     1       4.531  22.725   4.988  1.00  0.00     0.040 C 
HETATM   13  C   UNL     1      -1.068  25.268   5.719  1.00  0.00     0.044 A 
ENDROOT
BRANCH   9  14
HETATM   14  C   ACE A   0      -2.314  25.422   7.828  1.00  0.00     0.255 C 
HETATM   15  O   UNL     1      -2.424  26.503   8.431  1.00  0.00    -0.268 OA
HETATM   16  N   UNL     1      -3.340  24.472   7.787  1.00  0.00    -0.342 N 
HETATM   17  H   UNL     1      -3.222  23.613   7.260  1.00  0.00     0.163 HD
BRANCH  16  18
HETATM   18  CA  UNL     1      -4.620  24.653   8.435  1.00  0.00     0.186 C 
BRANCH  18  19
HETATM   19  CB  UNL     1      -4.444  24.967   9.927  1.00  0.00     0.074 C 
BRANCH  19  20
HETATM   20  CG  UNL     1      -5.205  24.017  10.821  1.00  0.00    -0.056 A 
HETATM   21  CD1 UNL     1      -4.674  23.675  12.056  1.00  0.00     0.007 A 
HETATM   22  CE1 UNL     1      -5.378  22.798  12.882  1.00  0.00     0.001 A 
HETATM   23  CZ  UNL     1      -6.600  22.274  12.464  1.00  0.00     0.000 A 
HETATM   24  CE2 UNL     1      -7.122  22.629  11.219  1.00  0.00     0.001 A 
HETATM   25  CD2 UNL     1      -6.419  23.505  10.392  1.00  0.00     0.007 A 
ENDBRANCH  19  20
ENDBRANCH  18  19
BRANCH  18  26
HETATM   26  C   UNL     1      -5.423  25.758   7.763  1.00  0.00     0.163 C 
HETATM   27  OXT UNL     1      -5.421  25.941   6.551  1.00  0.00    -0.648 OA
BRANCH  26  28
HETATM   28  O   UNL     1      -6.150  26.528   8.609  1.00  0.00    -0.775 OA
HETATM   29  H   UNL     1      -6.263  26.102   9.486  1.00  0.00     0.167 HD
ENDBRANCH  26  28
ENDBRANCH  18  26
ENDBRANCH  16  18
ENDBRANCH   9  14
BRANCH   8  30
HETATM   30  O   UNL     1      -0.021  24.488   9.127  1.00  0.00    -0.359 OA
HETATM   31  H   UNL     1       0.862  24.318   9.493  1.00  0.00     0.217 HD
ENDBRANCH   8  30
TORSDOF 7
ENDMDL
MODEL 19
REMARK VINA RESULT:    -6.533      3.937     10.479
REMARK INTER + INTRA:          -9.194
REMARK INTER:                  -8.101
REMARK INTRA:                  -1.092
REMARK UNBOUND:                -0.369
REMARK  7 active torsions:
REMARK  status: ('A' for Active; 'I' for Inactive)
REMARK    1  A    between atoms: O_3  and  C_13 
REMARK    2  A    between atoms: O_6  and  C_22 
REMARK    3  A    between atoms: N_8  and  CA_17 
REMARK       I    between atoms: N_8  and  C_31 
REMARK    4  A    between atoms: C_14  and  C_31 
REMARK    5  A    between atoms: CA_17  and  CB_20 
REMARK    6  A    between atoms: CA_17  and  C_22 
REMARK    7  A    between atoms: CB_20  and  CG_21 
ROOT
HETATM    1 CL   UNL     1      -0.480  23.363  10.187  1.00  0.00    -0.084 Cl
HETATM    2  O   UNL     1      -5.391  24.517   8.410  1.00  0.00    -0.312 OA
HETATM    3  O   UNL     1      -5.072  25.820   6.585  1.00  0.00    -0.259 OA
HETATM    4  C   UNL     1      -3.527  23.886   9.835  1.00  0.00     0.073 C 
HETATM    5  C   UNL     1      -4.867  23.464   9.250  1.00  0.00     0.132 C 
HETATM    6  C   UNL     1      -2.619  24.229   8.692  1.00  0.00    -0.015 A 
HETATM    7  C   UNL     1      -3.159  24.806   7.536  1.00  0.00     0.081 A 
HETATM    8  C   UNL     1      -2.326  25.155   6.468  1.00  0.00     0.098 A 
HETATM    9  C   UNL     1      -0.953  24.929   6.558  1.00  0.00     0.067 A 
HETATM   10  C   UNL     1      -1.238  24.022   8.779  1.00  0.00     0.042 A 
HETATM   11  C   UNL     1      -4.612  25.090   7.453  1.00  0.00     0.297 C 
HETATM   12  C   UNL     1      -5.891  23.196  10.345  1.00  0.00     0.040 C 
HETATM   13  C   UNL     1      -0.410  24.366   7.711  1.00  0.00     0.044 A 
ENDROOT
BRANCH   9  14
HETATM   14  C   ACE A   0      -0.061  25.278   5.459  1.00  0.00     0.255 C 
HETATM   15  O   UNL     1       0.974  25.931   5.673  1.00  0.00    -0.268 OA
HETATM   16  N   UNL     1      -0.419  24.825   4.185  1.00  0.00    -0.342 N 
HETATM   17  H   UNL     1      -1.259  24.270   4.057  1.00  0.00     0.163 HD
BRANCH  16  18
HETATM   18  CA  UNL     1       0.373  25.069   3.001  1.00  0.00     0.186 C 
BRANCH  18  19
HETATM   19  CB  UNL     1       0.818  23.751   2.353  1.00  0.00     0.074 C 
BRANCH  19  20
HETATM   20  CG  UNL     1       2.168  23.281   2.840  1.00  0.00    -0.056 A 
HETATM   21  CD1 UNL     1       2.380  21.928   3.050  1.00  0.00     0.007 A 
HETATM   22  CE1 UNL     1       3.628  21.494   3.501  1.00  0.00     0.001 A 
HETATM   23  CZ  UNL     1       4.645  22.418   3.736  1.00  0.00     0.000 A 
HETATM   24  CE2 UNL     1       4.416  23.778   3.519  1.00  0.00     0.001 A 
HETATM   25  CD2 UNL     1       3.169  24.211   3.069  1.00  0.00     0.007 A 
ENDBRANCH  19  20
ENDBRANCH  18  19
BRANCH  18  26
HETATM   26  C   UNL     1      -0.394  25.911   1.992  1.00  0.00     0.163 C 
HETATM   27  OXT UNL     1       0.133  26.792   1.321  1.00  0.00    -0.648 OA
BRANCH  26  28
HETATM   28  O   UNL     1      -1.710  25.610   1.883  1.00  0.00    -0.775 OA
HETATM   29  H   UNL     1      -2.200  26.289   1.371  1.00  0.00     0.167 HD
ENDBRANCH  26  28
ENDBRANCH  18  26
ENDBRANCH  16  18
ENDBRANCH   9  14
BRANCH   8  30
HETATM   30  O   UNL     1      -2.821  25.704   5.320  1.00  0.00    -0.359 OA
HETATM   31  H   UNL     1      -3.063  25.010   4.687  1.00  0.00     0.217 HD
ENDBRANCH   8  30
TORSDOF 7
ENDMDL
