REMARK  5 active torsions:
REMARK  status: ('A' for Active; 'I' for Inactive)
REMARK    1  A    between atoms: C_2  and  C_3 
REMARK    2  A    between atoms: C_2  and  C_6 
REMARK    3  A    between atoms: C_2  and  C_13 
REMARK    4  A    between atoms: C_3  and  C_4 
REMARK    5  A    between atoms: C_14  and  O_23 
ROOT
HETATM    1  C   UNL     1      -0.602   0.541   2.028  1.00  0.00     0.032 A 
HETATM    2  C   UNL     1       0.463  -1.652   0.746  1.00  0.00     0.298 A 
HETATM    3  C   UNL     1       0.325  -0.463   0.015  1.00  0.00     0.060 A 
HETATM    4  C   UNL     1      -0.202   0.645   0.617  1.00  0.00     0.091 A 
HETATM    5  C   UNL     1      -1.149   1.633   2.705  1.00  0.00     0.017 A 
HETATM    6  C   UNL     1      -1.514   1.502   4.026  1.00  0.00     0.001 A 
HETATM    7  C   UNL     1      -1.341   0.293   4.684  1.00  0.00     0.003 A 
HETATM    8  C   UNL     1      -0.803  -0.793   4.027  1.00  0.00     0.038 A 
HETATM    9  C   UNL     1      -0.428  -0.682   2.694  1.00  0.00     0.092 A 
HETATM   10  O   UNL     1       0.099  -1.736   2.036  1.00  0.00    -0.274 OA
HETATM   11  O   UNL     1       0.935  -2.633   0.199  1.00  0.00    -0.259 OA
ENDROOT
BRANCH   4  12
HETATM   12  O   UNL     1      -0.351   1.804  -0.065  1.00  0.00    -0.359 OA
HETATM   13  H   UNL     1      -0.737   2.442   0.549  1.00  0.00     0.217 HD
ENDBRANCH   4  12
BRANCH   3  14
HETATM   14  C   UNL     1       0.751  -0.409  -1.429  1.00  0.00     0.067 C 
BRANCH  14  15
HETATM   15  C   UNL     1       1.707   0.767  -1.635  1.00  0.00     0.092 C 
BRANCH  15  16
HETATM   16  C   UNL     1       2.981   0.520  -0.869  1.00  0.00     0.124 C 
HETATM   17  C   UNL     1       4.093   1.536  -0.908  1.00  0.00     0.091 C 
HETATM   18  O   UNL     1       3.111  -0.492  -0.225  1.00  0.00    -0.298 OA
ENDBRANCH  15  16
ENDBRANCH  14  15
BRANCH  14  19
HETATM   19  C   UNL     1      -0.461  -0.230  -2.304  1.00  0.00    -0.049 A 
HETATM   20  C   UNL     1      -1.223  -1.327  -2.663  1.00  0.00     0.008 A 
HETATM   21  C   UNL     1      -2.336  -1.163  -3.466  1.00  0.00     0.001 A 
HETATM   22  C   UNL     1      -2.688   0.097  -3.910  1.00  0.00     0.000 A 
HETATM   23  C   UNL     1      -1.927   1.193  -3.551  1.00  0.00     0.001 A 
HETATM   24  C   UNL     1      -0.817   1.030  -2.744  1.00  0.00     0.008 A 
ENDBRANCH  14  19
ENDBRANCH   3  14
TORSDOF 5
