RWF
  CCTOOLS-0919241044

 39 41  0  0  1  0  0  0  0  0999 V2000
   -0.6020    0.5410    2.0280 C   0  0  0  0  0
    0.7510   -0.4090   -1.4290 C   0  0  0  0  0
    1.7070    0.7670   -1.6350 C   0  0  0  0  0
    2.9810    0.5200   -0.8690 C   0  0  0  0  0
    4.0930    1.5360   -0.9080 C   0  0  0  0  0
   -0.4610   -0.2300   -2.3040 C   0  0  0  0  0
   -1.2230   -1.3270   -2.6630 C   0  0  0  0  0
   -2.3360   -1.1630   -3.4660 C   0  0  0  0  0
   -2.6880    0.0970   -3.9100 C   0  0  0  0  0
   -1.9270    1.1930   -3.5510 C   0  0  0  0  0
    0.4630   -1.6520    0.7460 C   0  0  0  0  0
   -0.8170    1.0300   -2.7440 C   0  0  0  0  0
    0.3250   -0.4630    0.0150 C   0  0  0  0  0
   -0.2020    0.6450    0.6170 C   0  0  0  0  0
   -1.1490    1.6330    2.7050 C   0  0  0  0  0
   -1.5140    1.5020    4.0260 C   0  0  0  0  0
   -1.3410    0.2930    4.6840 C   0  0  0  0  0
   -0.8030   -0.7930    4.0270 C   0  0  0  0  0
   -0.4280   -0.6820    2.6940 C   0  0  0  0  0
    0.0990   -1.7360    2.0360 O   0  0  0  0  0
    0.9350   -2.6330    0.1990 O   0  0  0  0  0
    3.1110   -0.4920   -0.2250 O   0  0  0  0  0
   -0.3510    1.8040   -0.0650 O   0  0  0  0  0
    1.2560   -1.3380   -1.6930 H   0  0  0  0  0
    1.2380    1.6830   -1.2750 H   0  0  0  0  0
    1.9350    0.8680   -2.6970 H   0  0  0  0  0
    4.9260    1.1870   -0.2990 H   0  0  0  0  0
    4.4260    1.6720   -1.9370 H   0  0  0  0  0
    3.7300    2.4870   -0.5160 H   0  0  0  0  0
   -0.9480   -2.3120   -2.3160 H   0  0  0  0  0
   -2.9300   -2.0200   -3.7460 H   0  0  0  0  0
   -3.5570    0.2240   -4.5380 H   0  0  0  0  0
   -2.2020    2.1780   -3.8980 H   0  0  0  0  0
   -0.2220    1.8870   -2.4640 H   0  0  0  0  0
   -1.2830    2.5760    2.1950 H   0  0  0  0  0
   -1.9360    2.3450    4.5540 H   0  0  0  0  0
   -1.6310    0.2010    5.7200 H   0  0  0  0  0
   -0.6720   -1.7290    4.5490 H   0  0  0  0  0
   -0.7370    2.4420    0.5490 H   0  0  0  0  0
  1 14  1  0  0  0
  1 15  2  0  0  0
  1 19  1  0  0  0
  2  3  1  0  0  0
  2  6  1  0  0  0
  2 13  1  0  0  0
  2 24  1  0  0  0
  3  4  1  0  0  0
  3 25  1  0  0  0
  3 26  1  0  0  0
  4  5  1  0  0  0
  4 22  2  0  0  0
  5 27  1  0  0  0
  5 28  1  0  0  0
  5 29  1  0  0  0
  6  7  2  0  0  0
  6 12  1  0  0  0
  7  8  1  0  0  0
  7 30  1  0  0  0
  8  9  2  0  0  0
  8 31  1  0  0  0
  9 10  1  0  0  0
  9 32  1  0  0  0
 10 12  2  0  0  0
 10 33  1  0  0  0
 11 13  1  0  0  0
 11 20  1  0  0  0
 11 21  2  0  0  0
 12 34  1  0  0  0
 13 14  2  0  0  0
 14 23  1  0  0  0
 15 16  1  0  0  0
 15 35  1  0  0  0
 16 17  2  0  0  0
 16 36  1  0  0  0
 17 18  1  0  0  0
 17 37  1  0  0  0
 18 19  2  0  0  0
 18 38  1  0  0  0
 19 20  1  0  0  0
 23 39  1  0  0  0
M  END
$$$$
