RWF
 OpenBabel08292512472D

 39 41  0  0  1  0  0  0  0  0999 V2000
    0.8454   -1.4643    0.0000 C   0  0  0  0  0  0  0  0  0  0  0  0
   -2.5362   -2.4405    0.0000 C   0  0  2  0  0  0  0  0  0  0  0  0
   -3.0243   -1.5951    0.0000 C   0  0  0  0  0  0  0  0  0  0  0  0
   -2.5362   -0.7497    0.0000 C   0  0  0  0  0  0  0  0  0  0  0  0
   -3.0243    0.0957    0.0000 C   0  0  0  0  0  0  0  0  0  0  0  0
   -3.3816   -2.9286    0.0000 C   0  0  0  0  0  0  0  0  0  0  0  0
   -3.3816   -3.9048    0.0000 C   0  0  0  0  0  0  0  0  0  0  0  0
   -4.2270   -4.3929    0.0000 C   0  0  0  0  0  0  0  0  0  0  0  0
   -5.0724   -3.9048    0.0000 C   0  0  0  0  0  0  0  0  0  0  0  0
   -5.0724   -2.9286    0.0000 C   0  0  0  0  0  0  0  0  0  0  0  0
   -0.8454   -0.4881    0.0000 C   0  0  0  0  0  0  0  0  0  0  0  0
   -4.2270   -2.4405    0.0000 C   0  0  0  0  0  0  0  0  0  0  0  0
   -0.8454   -1.4643    0.0000 C   0  0  0  0  0  0  0  0  0  0  0  0
   -0.0000   -1.9524    0.0000 C   0  0  0  0  0  0  0  0  0  0  0  0
    1.6908   -1.9524    0.0000 C   0  0  0  0  0  0  0  0  0  0  0  0
    2.5362   -1.4643    0.0000 C   0  0  0  0  0  0  0  0  0  0  0  0
    2.5362   -0.4881    0.0000 C   0  0  0  0  0  0  0  0  0  0  0  0
    1.6908   -0.0000    0.0000 C   0  0  0  0  0  0  0  0  0  0  0  0
    0.8454   -0.4881    0.0000 C   0  0  0  0  0  0  0  0  0  0  0  0
    0.0000   -0.0000    0.0000 O   0  0  0  0  0  0  0  0  0  0  0  0
   -1.6908    0.0000    0.0000 O   0  0  0  0  0  0  0  0  0  0  0  0
   -1.5600   -0.7497    0.0000 O   0  0  0  0  0  0  0  0  0  0  0  0
   -0.0000   -2.9286    0.0000 O   0  0  0  0  0  0  0  0  0  0  0  0
   -2.0481   -3.2859    0.0000 H   0  0  0  0  0  0  0  0  0  0  0  0
   -3.8697   -1.1070    0.0000 H   0  0  0  0  0  0  0  0  0  0  0  0
   -3.8697   -2.0832    0.0000 H   0  0  0  0  0  0  0  0  0  0  0  0
   -3.0243    1.0719    0.0000 H   0  0  0  0  0  0  0  0  0  0  0  0
   -2.1789    0.5838    0.0000 H   0  0  0  0  0  0  0  0  0  0  0  0
   -4.0005    0.0957    0.0000 H   0  0  0  0  0  0  0  0  0  0  0  0
   -2.5362   -4.3929    0.0000 H   0  0  0  0  0  0  0  0  0  0  0  0
   -4.2270   -5.3690    0.0000 H   0  0  0  0  0  0  0  0  0  0  0  0
   -5.9178   -4.3929    0.0000 H   0  0  0  0  0  0  0  0  0  0  0  0
   -5.9178   -2.4405    0.0000 H   0  0  0  0  0  0  0  0  0  0  0  0
   -4.2270   -1.4643    0.0000 H   0  0  0  0  0  0  0  0  0  0  0  0
    1.6908   -2.9286    0.0000 H   0  0  0  0  0  0  0  0  0  0  0  0
    3.3816   -1.9524    0.0000 H   0  0  0  0  0  0  0  0  0  0  0  0
    3.3816   -0.0000    0.0000 H   0  0  0  0  0  0  0  0  0  0  0  0
    1.6908    0.9762    0.0000 H   0  0  0  0  0  0  0  0  0  0  0  0
    0.8454   -3.4167    0.0000 H   0  0  0  0  0  0  0  0  0  0  0  0
  1 14  1  0  0  0  0
  1 15  2  0  0  0  0
  1 19  1  0  0  0  0
  2  3  1  0  0  0  0
  2  6  1  0  0  0  0
  2 13  1  0  0  0  0
  2 24  1  6  0  0  0
  3  4  1  0  0  0  0
  3 25  1  0  0  0  0
  3 26  1  0  0  0  0
  4  5  1  0  0  0  0
  4 22  2  0  0  0  0
  5 27  1  0  0  0  0
  5 28  1  0  0  0  0
  5 29  1  0  0  0  0
  6  7  2  0  0  0  0
  6 12  1  0  0  0  0
  7  8  1  0  0  0  0
  7 30  1  0  0  0  0
  8  9  2  0  0  0  0
  8 31  1  0  0  0  0
  9 10  1  0  0  0  0
  9 32  1  0  0  0  0
 10 12  2  0  0  0  0
 10 33  1  0  0  0  0
 11 13  1  0  0  0  0
 11 20  1  0  0  0  0
 11 21  2  0  0  0  0
 12 34  1  0  0  0  0
 13 14  2  0  0  0  0
 14 23  1  0  0  0  0
 15 16  1  0  0  0  0
 15 35  1  0  0  0  0
 16 17  2  0  0  0  0
 16 36  1  0  0  0  0
 17 18  1  0  0  0  0
 17 37  1  0  0  0  0
 18 19  2  0  0  0  0
 18 38  1  0  0  0  0
 19 20  1  0  0  0  0
 23 39  1  0  0  0  0
M  END
$$$$
