REMARK  6 active torsions:
REMARK  status: ('A' for Active; 'I' for Inactive)
REMARK    1  A    between atoms: C_13  and  C_16 
REMARK    2  A    between atoms: C_14  and  C_17 
REMARK    3  A    between atoms: C_15  and  C_18 
REMARK    4  A    between atoms: C_19  and  C_22 
REMARK    5  A    between atoms: C_20  and  C_23 
REMARK    6  A    between atoms: C_21  and  C_24 
ROOT
HETATM    1  O   UNL     1      -3.090   1.312   0.598  1.00  0.00    -0.304 OA
HETATM    2  O   UNL     1       2.078   1.580   0.547  1.00  0.00    -0.304 OA
HETATM    3  O   UNL     1       0.165  -2.527  -0.805  1.00  0.00    -0.304 OA
HETATM    4  O   UNL     1      -1.153   1.571  -1.105  1.00  0.00    -0.270 OA
HETATM    5  O   UNL     1      -2.396  -0.974  -1.911  1.00  0.00    -0.270 OA
HETATM    6  O   UNL     1       3.899  -0.842  -0.604  1.00  0.00    -0.270 OA
HETATM    7  O   UNL     1      -1.891  -0.044   2.027  1.00  0.00    -0.263 OA
HETATM    8  O   UNL     1       3.071   1.856  -1.512  1.00  0.00    -0.263 OA
HETATM    9  O   UNL     1       0.988  -4.665  -0.964  1.00  0.00    -0.263 OA
HETATM   10  N   UNL     1       0.049   3.177   0.046  1.00  0.00    -0.340 N 
HETATM   11  N   UNL     1      -2.654  -2.028   0.140  1.00  0.00    -0.340 N 
HETATM   12  N   UNL     1       2.168  -1.628   0.737  1.00  0.00    -0.340 N 
HETATM   13  C   UNL     1       1.107   3.153  -0.986  1.00  0.00     0.190 C 
HETATM   14  C   UNL     1      -3.607  -0.990   0.584  1.00  0.00     0.190 C 
HETATM   15  C   UNL     1       2.287  -3.008   0.222  1.00  0.00     0.190 C 
HETATM   16  C   UNL     1      -2.218   2.434   0.856  1.00  0.00     0.227 C 
HETATM   17  C   UNL     1       3.079   0.684   1.059  1.00  0.00     0.227 C 
HETATM   18  C   UNL     1      -1.012  -2.891  -1.551  1.00  0.00     0.227 C 
HETATM   19  C   UNL     1      -1.066   2.350  -0.149  1.00  0.00     0.250 C 
HETATM   20  C   UNL     1      -2.079  -1.881  -1.135  1.00  0.00     0.250 C 
HETATM   21  C   UNL     1       3.089  -0.656   0.309  1.00  0.00     0.250 C 
HETATM   22  C   UNL     1      -2.760   0.121   1.181  1.00  0.00     0.283 C 
HETATM   23  C   UNL     1       2.190   2.115  -0.699  1.00  0.00     0.283 C 
HETATM   24  C   UNL     1       1.079  -3.508  -0.567  1.00  0.00     0.283 C 
HETATM   25  C   UNL     1       0.255   4.033   1.218  1.00  0.00     0.153 C 
HETATM   26  C   UNL     1      -2.346  -3.118   1.071  1.00  0.00     0.153 C 
HETATM   27  C   UNL     1       1.200  -1.387   1.809  1.00  0.00     0.153 C 
ENDROOT
BRANCH  16  28
HETATM   28  C   UNL     1      -3.041   3.693   0.627  1.00  0.00     0.016 C 
HETATM   29  C   UNL     1      -3.605   3.718  -0.793  1.00  0.00     0.012 C 
HETATM   30  C   UNL     1      -4.170   3.795   1.652  1.00  0.00     0.012 C 
ENDBRANCH  16  28
BRANCH  14  31
HETATM   31  C   UNL     1      -4.666  -1.439   1.583  1.00  0.00     0.010 C 
HETATM   32  C   UNL     1      -5.561  -0.267   1.980  1.00  0.00     0.012 C 
HETATM   33  C   UNL     1      -5.501  -2.579   1.005  1.00  0.00     0.012 C 
ENDBRANCH  14  31
BRANCH  13  34
HETATM   34  C   UNL     1       1.753   4.515  -1.238  1.00  0.00     0.010 C 
HETATM   35  C   UNL     1       0.686   5.579  -1.493  1.00  0.00     0.012 C 
HETATM   36  C   UNL     1       2.727   4.443  -2.412  1.00  0.00     0.012 C 
ENDBRANCH  13  34
BRANCH  18  37
HETATM   37  C   UNL     1      -0.695  -2.795  -3.041  1.00  0.00     0.016 C 
HETATM   38  C   UNL     1      -1.937  -3.104  -3.877  1.00  0.00     0.012 C 
HETATM   39  C   UNL     1      -0.146  -1.413  -3.389  1.00  0.00     0.012 C 
ENDBRANCH  18  37
BRANCH  17  40
HETATM   40  C   UNL     1       4.458   1.342   1.110  1.00  0.00     0.016 C 
HETATM   41  C   UNL     1       5.469   0.420   1.788  1.00  0.00     0.012 C 
HETATM   42  C   UNL     1       4.386   2.685   1.834  1.00  0.00     0.012 C 
ENDBRANCH  17  40
BRANCH  15  43
HETATM   43  C   UNL     1       2.640  -3.990   1.340  1.00  0.00     0.010 C 
HETATM   44  C   UNL     1       2.943  -5.370   0.762  1.00  0.00     0.012 C 
HETATM   45  C   UNL     1       3.825  -3.473   2.150  1.00  0.00     0.012 C 
ENDBRANCH  15  43
TORSDOF 6
