MODEL 1
REMARK VINA RESULT:    -4.886      0.000      0.000
REMARK INTER + INTRA:          -7.157
REMARK INTER:                  -6.569
REMARK INTRA:                  -0.588
REMARK UNBOUND:                -0.986
REMARK  5 active torsions:
REMARK  status: ('A' for Active; 'I' for Inactive)
REMARK    1  A    between atoms: O_2  and  C_9 
REMARK    2  A    between atoms: C_5  and  C_6 
REMARK    3  A    between atoms: C_5  and  C_7 
REMARK    4  A    between atoms: C_5  and  C_8 
REMARK    5  A    between atoms: C_7  and  C_12 
ROOT
HETATM    1  O   UNL     1      -0.473  22.883   9.167  1.00  0.00    -0.274 OA
HETATM    2  O   UNL     1      -2.413  22.011   8.360  1.00  0.00    -0.259 OA
HETATM    3  C   UNL     1      -2.501  24.277   9.088  1.00  0.00     0.060 A 
HETATM    4  C   UNL     1      -1.816  25.313   9.608  1.00  0.00     0.091 A 
HETATM    5  C   UNL     1      -0.396  25.184   9.943  1.00  0.00     0.032 A 
HETATM    6  C   UNL     1      -1.818  22.973   8.838  1.00  0.00     0.298 A 
HETATM    7  C   UNL     1       0.236  23.967   9.712  1.00  0.00     0.092 A 
HETATM    8  C   UNL     1       0.368  26.226  10.489  1.00  0.00     0.017 A 
HETATM    9  C   UNL     1       1.584  23.760  10.004  1.00  0.00     0.038 A 
HETATM   10  C   UNL     1       1.721  26.035  10.788  1.00  0.00     0.001 A 
HETATM   11  C   UNL     1       2.329  24.804  10.545  1.00  0.00     0.003 A 
ENDROOT
BRANCH   3  12
HETATM   12  C   UNL     1      -3.959  24.288   8.717  1.00  0.00     0.067 C 
BRANCH  12  13
HETATM   13  C   UNL     1      -4.307  25.561   7.921  1.00  0.00     0.092 C 
BRANCH  13  14
HETATM   14  C   UNL     1      -4.171  25.397   6.413  1.00  0.00     0.124 C 
HETATM   15  O   UNL     1      -4.909  24.669   5.751  1.00  0.00    -0.298 OA
HETATM   16  C   UNL     1      -3.037  26.147   5.763  1.00  0.00     0.091 C 
ENDBRANCH  13  14
ENDBRANCH  12  13
BRANCH  12  17
HETATM   17  C   UNL     1      -4.838  24.105   9.945  1.00  0.00    -0.049 A 
HETATM   18  C   UNL     1      -4.279  23.660  11.143  1.00  0.00     0.008 A 
HETATM   19  C   UNL     1      -5.086  23.493  12.269  1.00  0.00     0.001 A 
HETATM   20  C   UNL     1      -6.450  23.770  12.197  1.00  0.00     0.000 A 
HETATM   21  C   UNL     1      -7.009  24.215  10.999  1.00  0.00     0.001 A 
HETATM   22  C   UNL     1      -6.203  24.384   9.873  1.00  0.00     0.008 A 
ENDBRANCH  12  17
ENDBRANCH   3  12
BRANCH   4  23
HETATM   23  O   UNL     1      -2.355  26.556   9.868  1.00  0.00    -0.359 OA
HETATM   24  H   UNL     1      -1.687  27.235   9.679  1.00  0.00     0.217 HD
ENDBRANCH   4  23
TORSDOF 5
ENDMDL
MODEL 2
REMARK VINA RESULT:    -4.417      1.229      2.404
REMARK INTER + INTRA:          -6.565
REMARK INTER:                  -6.267
REMARK INTRA:                  -0.298
REMARK UNBOUND:                -0.986
REMARK  5 active torsions:
REMARK  status: ('A' for Active; 'I' for Inactive)
REMARK    1  A    between atoms: O_2  and  C_9 
REMARK    2  A    between atoms: C_5  and  C_6 
REMARK    3  A    between atoms: C_5  and  C_7 
REMARK    4  A    between atoms: C_5  and  C_8 
REMARK    5  A    between atoms: C_7  and  C_12 
ROOT
HETATM    1  O   UNL     1      -1.047  26.724   9.927  1.00  0.00    -0.274 OA
HETATM    2  O   UNL     1      -3.104  27.198   9.079  1.00  0.00    -0.259 OA
HETATM    3  C   UNL     1      -2.273  25.007   8.659  1.00  0.00     0.060 A 
HETATM    4  C   UNL     1      -1.259  24.140   8.843  1.00  0.00     0.091 A 
HETATM    5  C   UNL     1      -0.061  24.529   9.592  1.00  0.00     0.032 A 
HETATM    6  C   UNL     1      -2.194  26.386   9.224  1.00  0.00     0.298 A 
HETATM    7  C   UNL     1       0.009  25.816  10.113  1.00  0.00     0.092 A 
HETATM    8  C   UNL     1       1.026  23.672   9.813  1.00  0.00     0.017 A 
HETATM    9  C   UNL     1       1.113  26.267  10.837  1.00  0.00     0.038 A 
HETATM   10  C   UNL     1       2.141  24.108  10.536  1.00  0.00     0.001 A 
HETATM   11  C   UNL     1       2.184  25.404  11.048  1.00  0.00     0.003 A 
ENDROOT
BRANCH   3  12
HETATM   12  C   UNL     1      -3.541  24.724   7.901  1.00  0.00     0.067 C 
BRANCH  12  13
HETATM   13  C   UNL     1      -3.803  25.822   6.851  1.00  0.00     0.092 C 
BRANCH  13  14
HETATM   14  C   UNL     1      -2.970  25.670   5.585  1.00  0.00     0.124 C 
HETATM   15  O   UNL     1      -1.749  25.821   5.565  1.00  0.00    -0.298 OA
HETATM   16  C   UNL     1      -3.733  25.365   4.322  1.00  0.00     0.091 C 
ENDBRANCH  13  14
ENDBRANCH  12  13
BRANCH  12  17
HETATM   17  C   UNL     1      -4.714  24.529   8.850  1.00  0.00    -0.049 A 
HETATM   18  C   UNL     1      -4.671  23.521   9.814  1.00  0.00     0.008 A 
HETATM   19  C   UNL     1      -5.746  23.342  10.685  1.00  0.00     0.001 A 
HETATM   20  C   UNL     1      -6.865  24.169  10.591  1.00  0.00     0.000 A 
HETATM   21  C   UNL     1      -6.908  25.177   9.626  1.00  0.00     0.001 A 
HETATM   22  C   UNL     1      -5.832  25.357   8.756  1.00  0.00     0.008 A 
ENDBRANCH  12  17
ENDBRANCH   3  12
BRANCH   4  23
HETATM   23  O   UNL     1      -1.240  22.845   8.367  1.00  0.00    -0.359 OA
HETATM   24  H   UNL     1      -0.687  22.810   7.571  1.00  0.00     0.217 HD
ENDBRANCH   4  23
TORSDOF 5
ENDMDL
MODEL 3
REMARK VINA RESULT:    -4.397      1.786      5.869
REMARK INTER + INTRA:          -6.539
REMARK INTER:                  -6.031
REMARK INTRA:                  -0.508
REMARK UNBOUND:                -0.986
REMARK  5 active torsions:
REMARK  status: ('A' for Active; 'I' for Inactive)
REMARK    1  A    between atoms: O_2  and  C_9 
REMARK    2  A    between atoms: C_5  and  C_6 
REMARK    3  A    between atoms: C_5  and  C_7 
REMARK    4  A    between atoms: C_5  and  C_8 
REMARK    5  A    between atoms: C_7  and  C_12 
ROOT
HETATM    1  O   UNL     1      -7.096  25.712   9.427  1.00  0.00    -0.274 OA
HETATM    2  O   UNL     1      -6.178  27.029   7.814  1.00  0.00    -0.259 OA
HETATM    3  C   UNL     1      -4.856  25.190   8.550  1.00  0.00     0.060 A 
HETATM    4  C   UNL     1      -4.778  24.124   9.368  1.00  0.00     0.091 A 
HETATM    5  C   UNL     1      -5.876  23.791  10.279  1.00  0.00     0.032 A 
HETATM    6  C   UNL     1      -6.074  26.053   8.552  1.00  0.00     0.298 A 
HETATM    7  C   UNL     1      -7.008  24.600  10.281  1.00  0.00     0.092 A 
HETATM    8  C   UNL     1      -5.851  22.697  11.155  1.00  0.00     0.017 A 
HETATM    9  C   UNL     1      -8.097  24.354  11.117  1.00  0.00     0.038 A 
HETATM   10  C   UNL     1      -6.935  22.437  12.000  1.00  0.00     0.001 A 
HETATM   11  C   UNL     1      -8.057  23.264  11.981  1.00  0.00     0.003 A 
ENDROOT
BRANCH   3  12
HETATM   12  C   UNL     1      -3.790  25.634   7.585  1.00  0.00     0.067 C 
BRANCH  12  13
HETATM   13  C   UNL     1      -3.983  24.957   6.213  1.00  0.00     0.092 C 
BRANCH  13  14
HETATM   14  C   UNL     1      -4.005  25.934   5.046  1.00  0.00     0.124 C 
HETATM   15  O   UNL     1      -4.780  26.887   4.985  1.00  0.00    -0.298 OA
HETATM   16  C   UNL     1      -3.044  25.646   3.921  1.00  0.00     0.091 C 
ENDBRANCH  13  14
ENDBRANCH  12  13
BRANCH  12  17
HETATM   17  C   UNL     1      -2.401  25.407   8.161  1.00  0.00    -0.049 A 
HETATM   18  C   UNL     1      -1.964  26.163   9.249  1.00  0.00     0.008 A 
HETATM   19  C   UNL     1      -0.690  25.954   9.777  1.00  0.00     0.001 A 
HETATM   20  C   UNL     1       0.148  24.990   9.217  1.00  0.00     0.000 A 
HETATM   21  C   UNL     1      -0.289  24.234   8.129  1.00  0.00     0.001 A 
HETATM   22  C   UNL     1      -1.564  24.442   7.600  1.00  0.00     0.008 A 
ENDBRANCH  12  17
ENDBRANCH   3  12
BRANCH   4  23
HETATM   23  O   UNL     1      -3.701  23.264   9.434  1.00  0.00    -0.359 OA
HETATM   24  H   UNL     1      -3.042  23.631  10.045  1.00  0.00     0.217 HD
ENDBRANCH   4  23
TORSDOF 5
ENDMDL
MODEL 4
REMARK VINA RESULT:    -4.327      7.965     10.162
REMARK INTER + INTRA:          -6.451
REMARK INTER:                  -5.319
REMARK INTRA:                  -1.132
REMARK UNBOUND:                -0.986
REMARK  5 active torsions:
REMARK  status: ('A' for Active; 'I' for Inactive)
REMARK    1  A    between atoms: O_2  and  C_9 
REMARK    2  A    between atoms: C_5  and  C_6 
REMARK    3  A    between atoms: C_5  and  C_7 
REMARK    4  A    between atoms: C_5  and  C_8 
REMARK    5  A    between atoms: C_7  and  C_12 
ROOT
HETATM    1  O   UNL     1       5.340  26.396   2.717  1.00  0.00    -0.274 OA
HETATM    2  O   UNL     1       4.107  25.768   4.522  1.00  0.00    -0.259 OA
HETATM    3  C   UNL     1       3.283  25.081   2.396  1.00  0.00     0.060 A 
HETATM    4  C   UNL     1       3.480  25.089   1.064  1.00  0.00     0.091 A 
HETATM    5  C   UNL     1       4.639  25.767   0.477  1.00  0.00     0.032 A 
HETATM    6  C   UNL     1       4.254  25.762   3.303  1.00  0.00     0.298 A 
HETATM    7  C   UNL     1       5.538  26.403   1.326  1.00  0.00     0.092 A 
HETATM    8  C   UNL     1       4.893  25.812  -0.901  1.00  0.00     0.017 A 
HETATM    9  C   UNL     1       6.666  27.072   0.850  1.00  0.00     0.038 A 
HETATM   10  C   UNL     1       6.020  26.478  -1.395  1.00  0.00     0.001 A 
HETATM   11  C   UNL     1       6.904  27.107  -0.521  1.00  0.00     0.003 A 
ENDROOT
BRANCH   3  12
HETATM   12  C   UNL     1       2.129  24.430   3.108  1.00  0.00     0.067 C 
BRANCH  12  13
HETATM   13  C   UNL     1       2.183  22.899   2.943  1.00  0.00     0.092 C 
BRANCH  13  14
HETATM   14  C   UNL     1       3.094  22.207   3.949  1.00  0.00     0.124 C 
HETATM   15  O   UNL     1       2.954  22.319   5.166  1.00  0.00    -0.298 OA
HETATM   16  C   UNL     1       4.227  21.399   3.371  1.00  0.00     0.091 C 
ENDBRANCH  13  14
ENDBRANCH  12  13
BRANCH  12  17
HETATM   17  C   UNL     1       0.803  25.023   2.655  1.00  0.00    -0.049 A 
HETATM   18  C   UNL     1      -0.206  24.188   2.172  1.00  0.00     0.008 A 
HETATM   19  C   UNL     1      -1.421  24.731   1.757  1.00  0.00     0.001 A 
HETATM   20  C   UNL     1      -1.629  26.109   1.824  1.00  0.00     0.000 A 
HETATM   21  C   UNL     1      -0.621  26.943   2.308  1.00  0.00     0.001 A 
HETATM   22  C   UNL     1       0.595  26.400   2.724  1.00  0.00     0.008 A 
ENDBRANCH  12  17
ENDBRANCH   3  12
BRANCH   4  23
HETATM   23  O   UNL     1       2.646  24.484   0.146  1.00  0.00    -0.359 OA
HETATM   24  H   UNL     1       3.162  23.849  -0.377  1.00  0.00     0.217 HD
ENDBRANCH   4  23
TORSDOF 5
ENDMDL
MODEL 5
REMARK VINA RESULT:    -4.250      1.378      3.838
REMARK INTER + INTRA:          -6.353
REMARK INTER:                  -6.363
REMARK INTRA:                   0.010
REMARK UNBOUND:                -0.986
REMARK  5 active torsions:
REMARK  status: ('A' for Active; 'I' for Inactive)
REMARK    1  A    between atoms: O_2  and  C_9 
REMARK    2  A    between atoms: C_5  and  C_6 
REMARK    3  A    between atoms: C_5  and  C_7 
REMARK    4  A    between atoms: C_5  and  C_8 
REMARK    5  A    between atoms: C_7  and  C_12 
ROOT
HETATM    1  O   UNL     1       0.209  23.021   9.325  1.00  0.00    -0.274 OA
HETATM    2  O   UNL     1      -1.778  22.402   8.407  1.00  0.00    -0.259 OA
HETATM    3  C   UNL     1      -1.637  24.645   9.193  1.00  0.00     0.060 A 
HETATM    4  C   UNL     1      -0.861  25.581   9.772  1.00  0.00     0.091 A 
HETATM    5  C   UNL     1       0.517  25.279  10.168  1.00  0.00     0.032 A 
HETATM    6  C   UNL     1      -1.099  23.276   8.938  1.00  0.00     0.298 A 
HETATM    7  C   UNL     1       1.012  24.001   9.932  1.00  0.00     0.092 A 
HETATM    8  C   UNL     1       1.369  26.211  10.777  1.00  0.00     0.017 A 
HETATM    9  C   UNL     1       2.311  23.630  10.279  1.00  0.00     0.038 A 
HETATM   10  C   UNL     1       2.675  25.855  11.131  1.00  0.00     0.001 A 
HETATM   11  C   UNL     1       3.146  24.567  10.882  1.00  0.00     0.003 A 
ENDROOT
BRANCH   3  12
HETATM   12  C   UNL     1      -3.063  24.837   8.757  1.00  0.00     0.067 C 
BRANCH  12  13
HETATM   13  C   UNL     1      -3.924  23.625   9.165  1.00  0.00     0.092 C 
BRANCH  13  14
HETATM   14  C   UNL     1      -4.685  23.826  10.469  1.00  0.00     0.124 C 
HETATM   15  O   UNL     1      -4.154  23.737  11.575  1.00  0.00    -0.298 OA
HETATM   16  C   UNL     1      -6.162  24.099  10.339  1.00  0.00     0.091 C 
ENDBRANCH  13  14
ENDBRANCH  12  13
BRANCH  12  17
HETATM   17  C   UNL     1      -3.144  25.138   7.268  1.00  0.00    -0.049 A 
HETATM   18  C   UNL     1      -1.998  25.516   6.569  1.00  0.00     0.008 A 
HETATM   19  C   UNL     1      -2.072  25.792   5.204  1.00  0.00     0.001 A 
HETATM   20  C   UNL     1      -3.293  25.692   4.537  1.00  0.00     0.000 A 
HETATM   21  C   UNL     1      -4.440  25.315   5.236  1.00  0.00     0.001 A 
HETATM   22  C   UNL     1      -4.366  25.037   6.602  1.00  0.00     0.008 A 
ENDBRANCH  12  17
ENDBRANCH   3  12
BRANCH   4  23
HETATM   23  O   UNL     1      -1.263  26.873  10.042  1.00  0.00    -0.359 OA
HETATM   24  H   UNL     1      -0.480  27.446  10.078  1.00  0.00     0.217 HD
ENDBRANCH   4  23
TORSDOF 5
ENDMDL
MODEL 6
REMARK VINA RESULT:    -4.205      3.453      5.345
REMARK INTER + INTRA:          -6.297
REMARK INTER:                  -5.257
REMARK INTRA:                  -1.040
REMARK UNBOUND:                -0.986
REMARK  5 active torsions:
REMARK  status: ('A' for Active; 'I' for Inactive)
REMARK    1  A    between atoms: O_2  and  C_9 
REMARK    2  A    between atoms: C_5  and  C_6 
REMARK    3  A    between atoms: C_5  and  C_7 
REMARK    4  A    between atoms: C_5  and  C_8 
REMARK    5  A    between atoms: C_7  and  C_12 
ROOT
HETATM    1  O   UNL     1       4.326  22.710  11.163  1.00  0.00    -0.274 OA
HETATM    2  O   UNL     1       3.470  21.959   9.194  1.00  0.00    -0.259 OA
HETATM    3  C   UNL     1       2.515  23.960  10.061  1.00  0.00     0.060 A 
HETATM    4  C   UNL     1       2.532  24.870  11.053  1.00  0.00     0.091 A 
HETATM    5  C   UNL     1       3.464  24.744  12.176  1.00  0.00     0.032 A 
HETATM    6  C   UNL     1       3.456  22.803  10.086  1.00  0.00     0.298 A 
HETATM    7  C   UNL     1       4.337  23.662  12.197  1.00  0.00     0.092 A 
HETATM    8  C   UNL     1       3.526  25.657  13.237  1.00  0.00     0.017 A 
HETATM    9  C   UNL     1       5.255  23.466  13.229  1.00  0.00     0.038 A 
HETATM   10  C   UNL     1       4.441  25.476  14.280  1.00  0.00     0.001 A 
HETATM   11  C   UNL     1       5.304  24.382  14.276  1.00  0.00     0.003 A 
ENDROOT
BRANCH   3  12
HETATM   12  C   UNL     1       1.597  23.981   8.868  1.00  0.00     0.067 C 
BRANCH  12  13
HETATM   13  C   UNL     1       2.049  25.050   7.854  1.00  0.00     0.092 C 
BRANCH  13  14
HETATM   14  C   UNL     1       2.827  24.484   6.674  1.00  0.00     0.124 C 
HETATM   15  O   UNL     1       4.052  24.362   6.676  1.00  0.00    -0.298 OA
HETATM   16  C   UNL     1       2.015  24.117   5.458  1.00  0.00     0.091 C 
ENDBRANCH  13  14
ENDBRANCH  12  13
BRANCH  12  17
HETATM   17  C   UNL     1       0.148  24.153   9.296  1.00  0.00    -0.049 A 
HETATM   18  C   UNL     1      -0.428  23.250  10.190  1.00  0.00     0.008 A 
HETATM   19  C   UNL     1      -1.757  23.408  10.582  1.00  0.00     0.001 A 
HETATM   20  C   UNL     1      -2.512  24.467  10.079  1.00  0.00     0.000 A 
HETATM   21  C   UNL     1      -1.936  25.370   9.185  1.00  0.00     0.001 A 
HETATM   22  C   UNL     1      -0.606  25.213   8.793  1.00  0.00     0.008 A 
ENDBRANCH  12  17
ENDBRANCH   3  12
BRANCH   4  23
HETATM   23  O   UNL     1       1.708  25.976  11.115  1.00  0.00    -0.359 OA
HETATM   24  H   UNL     1       0.783  25.681  11.091  1.00  0.00     0.217 HD
ENDBRANCH   4  23
TORSDOF 5
ENDMDL
MODEL 7
REMARK VINA RESULT:    -4.043      2.737      6.667
REMARK INTER + INTRA:          -6.093
REMARK INTER:                  -5.055
REMARK INTRA:                  -1.038
REMARK UNBOUND:                -0.986
REMARK  5 active torsions:
REMARK  status: ('A' for Active; 'I' for Inactive)
REMARK    1  A    between atoms: O_2  and  C_9 
REMARK    2  A    between atoms: C_5  and  C_6 
REMARK    3  A    between atoms: C_5  and  C_7 
REMARK    4  A    between atoms: C_5  and  C_8 
REMARK    5  A    between atoms: C_7  and  C_12 
ROOT
HETATM    1  O   UNL     1      -1.196  25.837   6.573  1.00  0.00    -0.274 OA
HETATM    2  O   UNL     1       0.955  26.487   6.219  1.00  0.00    -0.259 OA
HETATM    3  C   UNL     1       0.631  24.749   7.814  1.00  0.00     0.060 A 
HETATM    4  C   UNL     1      -0.260  23.958   8.441  1.00  0.00     0.091 A 
HETATM    5  C   UNL     1      -1.694  24.069   8.164  1.00  0.00     0.032 A 
HETATM    6  C   UNL     1       0.169  25.755   6.813  1.00  0.00     0.298 A 
HETATM    7  C   UNL     1      -2.121  25.011   7.234  1.00  0.00     0.092 A 
HETATM    8  C   UNL     1      -2.667  23.276   8.788  1.00  0.00     0.017 A 
HETATM    9  C   UNL     1      -3.467  25.183   6.912  1.00  0.00     0.038 A 
HETATM   10  C   UNL     1      -4.022  23.436   8.476  1.00  0.00     0.001 A 
HETATM   11  C   UNL     1      -4.421  24.387   7.540  1.00  0.00     0.003 A 
ENDROOT
BRANCH   3  12
HETATM   12  C   UNL     1       2.120  24.732   8.025  1.00  0.00     0.067 C 
BRANCH  12  13
HETATM   13  C   UNL     1       2.747  23.481   7.378  1.00  0.00     0.092 C 
BRANCH  13  14
HETATM   14  C   UNL     1       3.484  23.769   6.077  1.00  0.00     0.124 C 
HETATM   15  O   UNL     1       4.603  24.280   6.041  1.00  0.00    -0.298 OA
HETATM   16  C   UNL     1       2.744  23.436   4.807  1.00  0.00     0.091 C 
ENDBRANCH  13  14
ENDBRANCH  12  13
BRANCH  12  17
HETATM   17  C   UNL     1       2.465  24.864   9.501  1.00  0.00    -0.049 A 
HETATM   18  C   UNL     1       1.986  25.949  10.236  1.00  0.00     0.008 A 
HETATM   19  C   UNL     1       2.302  26.069  11.589  1.00  0.00     0.001 A 
HETATM   20  C   UNL     1       3.097  25.106  12.208  1.00  0.00     0.000 A 
HETATM   21  C   UNL     1       3.576  24.021  11.474  1.00  0.00     0.001 A 
HETATM   22  C   UNL     1       3.260  23.899  10.120  1.00  0.00     0.008 A 
ENDBRANCH  12  17
ENDBRANCH   3  12
BRANCH   4  23
HETATM   23  O   UNL     1       0.069  22.996   9.374  1.00  0.00    -0.359 OA
HETATM   24  H   UNL     1       0.163  22.140   8.924  1.00  0.00     0.217 HD
ENDBRANCH   4  23
TORSDOF 5
ENDMDL
MODEL 8
REMARK VINA RESULT:    -3.948      6.539     10.114
REMARK INTER + INTRA:          -5.972
REMARK INTER:                  -5.652
REMARK INTRA:                  -0.320
REMARK UNBOUND:                -0.986
REMARK  5 active torsions:
REMARK  status: ('A' for Active; 'I' for Inactive)
REMARK    1  A    between atoms: O_2  and  C_9 
REMARK    2  A    between atoms: C_5  and  C_6 
REMARK    3  A    between atoms: C_5  and  C_7 
REMARK    4  A    between atoms: C_5  and  C_8 
REMARK    5  A    between atoms: C_7  and  C_12 
ROOT
HETATM    1  O   UNL     1       1.109  24.544   5.038  1.00  0.00    -0.274 OA
HETATM    2  O   UNL     1       3.053  23.531   5.644  1.00  0.00    -0.259 OA
HETATM    3  C   UNL     1       2.463  23.382   3.342  1.00  0.00     0.060 A 
HETATM    4  C   UNL     1       1.567  23.712   2.393  1.00  0.00     0.091 A 
HETATM    5  C   UNL     1       0.370  24.489   2.724  1.00  0.00     0.032 A 
HETATM    6  C   UNL     1       2.253  23.811   4.756  1.00  0.00     0.298 A 
HETATM    7  C   UNL     1       0.176  24.883   4.044  1.00  0.00     0.092 A 
HETATM    8  C   UNL     1      -0.599  24.859   1.780  1.00  0.00     0.017 A 
HETATM    9  C   UNL     1      -0.937  25.624   4.444  1.00  0.00     0.038 A 
HETATM   10  C   UNL     1      -1.720  25.602   2.165  1.00  0.00     0.001 A 
HETATM   11  C   UNL     1      -1.889  25.983   3.495  1.00  0.00     0.003 A 
ENDROOT
BRANCH   3  12
HETATM   12  C   UNL     1       3.717  22.581   3.123  1.00  0.00     0.067 C 
BRANCH  12  13
HETATM   13  C   UNL     1       3.700  21.299   3.978  1.00  0.00     0.092 C 
BRANCH  13  14
HETATM   14  C   UNL     1       3.082  20.099   3.271  1.00  0.00     0.124 C 
HETATM   15  O   UNL     1       2.139  20.197   2.489  1.00  0.00    -0.298 OA
HETATM   16  C   UNL     1       3.664  18.753   3.619  1.00  0.00     0.091 C 
ENDBRANCH  13  14
ENDBRANCH  12  13
BRANCH  12  17
HETATM   17  C   UNL     1       4.957  23.429   3.362  1.00  0.00    -0.049 A 
HETATM   18  C   UNL     1       5.127  24.628   2.669  1.00  0.00     0.008 A 
HETATM   19  C   UNL     1       6.264  25.405   2.889  1.00  0.00     0.001 A 
HETATM   20  C   UNL     1       7.231  24.985   3.801  1.00  0.00     0.000 A 
HETATM   21  C   UNL     1       7.061  23.786   4.494  1.00  0.00     0.001 A 
HETATM   22  C   UNL     1       5.924  23.008   4.275  1.00  0.00     0.008 A 
ENDBRANCH  12  17
ENDBRANCH   3  12
BRANCH   4  23
HETATM   23  O   UNL     1       1.676  23.370   1.061  1.00  0.00    -0.359 OA
HETATM   24  H   UNL     1       2.075  22.487   0.994  1.00  0.00     0.217 HD
ENDBRANCH   4  23
TORSDOF 5
ENDMDL
MODEL 9
REMARK VINA RESULT:    -3.844      1.770      5.997
REMARK INTER + INTRA:          -5.841
REMARK INTER:                  -5.531
REMARK INTRA:                  -0.310
REMARK UNBOUND:                -0.986
REMARK  5 active torsions:
REMARK  status: ('A' for Active; 'I' for Inactive)
REMARK    1  A    between atoms: O_2  and  C_9 
REMARK    2  A    between atoms: C_5  and  C_6 
REMARK    3  A    between atoms: C_5  and  C_7 
REMARK    4  A    between atoms: C_5  and  C_8 
REMARK    5  A    between atoms: C_7  and  C_12 
ROOT
HETATM    1  O   UNL     1      -3.393  22.966   9.242  1.00  0.00    -0.274 OA
HETATM    2  O   UNL     1      -1.331  22.944   8.281  1.00  0.00    -0.259 OA
HETATM    3  C   UNL     1      -2.600  24.939   8.001  1.00  0.00     0.060 A 
HETATM    4  C   UNL     1      -3.754  25.578   8.271  1.00  0.00     0.091 A 
HETATM    5  C   UNL     1      -4.810  24.931   9.053  1.00  0.00     0.032 A 
HETATM    6  C   UNL     1      -2.374  23.553   8.504  1.00  0.00     0.298 A 
HETATM    7  C   UNL     1      -4.596  23.637   9.517  1.00  0.00     0.092 A 
HETATM    8  C   UNL     1      -6.031  25.545   9.362  1.00  0.00     0.017 A 
HETATM    9  C   UNL     1      -5.549  22.949  10.268  1.00  0.00     0.038 A 
HETATM   10  C   UNL     1      -6.998  24.868  10.114  1.00  0.00     0.001 A 
HETATM   11  C   UNL     1      -6.757  23.572  10.566  1.00  0.00     0.003 A 
ENDROOT
BRANCH   3  12
HETATM   12  C   UNL     1      -1.455  25.497   7.201  1.00  0.00     0.067 C 
BRANCH  12  13
HETATM   13  C   UNL     1      -1.052  26.889   7.728  1.00  0.00     0.092 C 
BRANCH  13  14
HETATM   14  C   UNL     1      -0.365  26.854   9.087  1.00  0.00     0.124 C 
HETATM   15  O   UNL     1      -0.925  27.195  10.128  1.00  0.00    -0.298 OA
HETATM   16  C   UNL     1       1.077  26.416   9.091  1.00  0.00     0.091 C 
ENDBRANCH  13  14
ENDBRANCH  12  13
BRANCH  12  17
HETATM   17  C   UNL     1      -1.777  25.504   5.714  1.00  0.00    -0.049 A 
HETATM   18  C   UNL     1      -0.748  25.607   4.778  1.00  0.00     0.008 A 
HETATM   19  C   UNL     1      -1.044  25.613   3.415  1.00  0.00     0.001 A 
HETATM   20  C   UNL     1      -2.368  25.516   2.988  1.00  0.00     0.000 A 
HETATM   21  C   UNL     1      -3.397  25.412   3.925  1.00  0.00     0.001 A 
HETATM   22  C   UNL     1      -3.102  25.405   5.288  1.00  0.00     0.008 A 
ENDBRANCH  12  17
ENDBRANCH   3  12
BRANCH   4  23
HETATM   23  O   UNL     1      -4.053  26.860   7.857  1.00  0.00    -0.359 OA
HETATM   24  H   UNL     1      -3.463  27.484   8.310  1.00  0.00     0.217 HD
ENDBRANCH   4  23
TORSDOF 5
ENDMDL
MODEL 10
REMARK VINA RESULT:    -3.839      2.642      4.465
REMARK INTER + INTRA:          -5.834
REMARK INTER:                  -5.524
REMARK INTRA:                  -0.310
REMARK UNBOUND:                -0.986
REMARK  5 active torsions:
REMARK  status: ('A' for Active; 'I' for Inactive)
REMARK    1  A    between atoms: O_2  and  C_9 
REMARK    2  A    between atoms: C_5  and  C_6 
REMARK    3  A    between atoms: C_5  and  C_7 
REMARK    4  A    between atoms: C_5  and  C_8 
REMARK    5  A    between atoms: C_7  and  C_12 
ROOT
HETATM    1  O   UNL     1       1.253  26.009  10.984  1.00  0.00    -0.274 OA
HETATM    2  O   UNL     1      -0.385  26.483   9.479  1.00  0.00    -0.259 OA
HETATM    3  C   UNL     1       1.016  24.629   8.959  1.00  0.00     0.060 A 
HETATM    4  C   UNL     1       2.054  23.867   9.351  1.00  0.00     0.091 A 
HETATM    5  C   UNL     1       2.762  24.143  10.604  1.00  0.00     0.032 A 
HETATM    6  C   UNL     1       0.562  25.772   9.804  1.00  0.00     0.298 A 
HETATM    7  C   UNL     1       2.338  25.212  11.386  1.00  0.00     0.092 A 
HETATM    8  C   UNL     1       3.851  23.387  11.061  1.00  0.00     0.017 A 
HETATM    9  C   UNL     1       2.957  25.545  12.591  1.00  0.00     0.038 A 
HETATM   10  C   UNL     1       4.483  23.707  12.267  1.00  0.00     0.001 A 
HETATM   11  C   UNL     1       4.037  24.784  13.031  1.00  0.00     0.003 A 
ENDROOT
BRANCH   3  12
HETATM   12  C   UNL     1       0.224  24.448   7.693  1.00  0.00     0.067 C 
BRANCH  12  13
HETATM   13  C   UNL     1       0.392  25.669   6.768  1.00  0.00     0.092 C 
BRANCH  13  14
HETATM   14  C   UNL     1       0.877  25.314   5.368  1.00  0.00     0.124 C 
HETATM   15  O   UNL     1       0.507  25.914   4.360  1.00  0.00    -0.298 OA
HETATM   16  C   UNL     1       1.815  24.139   5.269  1.00  0.00     0.091 C 
ENDBRANCH  13  14
ENDBRANCH  12  13
BRANCH  12  17
HETATM   17  C   UNL     1      -1.234  24.140   7.999  1.00  0.00    -0.049 A 
HETATM   18  C   UNL     1      -2.248  24.806   7.309  1.00  0.00     0.008 A 
HETATM   19  C   UNL     1      -3.585  24.523   7.590  1.00  0.00     0.001 A 
HETATM   20  C   UNL     1      -3.909  23.575   8.560  1.00  0.00     0.000 A 
HETATM   21  C   UNL     1      -2.895  22.910   9.250  1.00  0.00     0.001 A 
HETATM   22  C   UNL     1      -1.558  23.191   8.970  1.00  0.00     0.008 A 
ENDBRANCH  12  17
ENDBRANCH   3  12
BRANCH   4  23
HETATM   23  O   UNL     1       2.543  22.787   8.645  1.00  0.00    -0.359 OA
HETATM   24  H   UNL     1       1.848  22.458   8.052  1.00  0.00     0.217 HD
ENDBRANCH   4  23
TORSDOF 5
ENDMDL
MODEL 11
REMARK VINA RESULT:    -3.827      3.247      4.986
REMARK INTER + INTRA:          -5.820
REMARK INTER:                  -5.070
REMARK INTRA:                  -0.750
REMARK UNBOUND:                -0.986
REMARK  5 active torsions:
REMARK  status: ('A' for Active; 'I' for Inactive)
REMARK    1  A    between atoms: O_2  and  C_9 
REMARK    2  A    between atoms: C_5  and  C_6 
REMARK    3  A    between atoms: C_5  and  C_7 
REMARK    4  A    between atoms: C_5  and  C_8 
REMARK    5  A    between atoms: C_7  and  C_12 
ROOT
HETATM    1  O   UNL     1       3.984  23.023  10.369  1.00  0.00    -0.274 OA
HETATM    2  O   UNL     1       3.250  22.466   8.289  1.00  0.00    -0.259 OA
HETATM    3  C   UNL     1       2.092  24.242   9.372  1.00  0.00     0.060 A 
HETATM    4  C   UNL     1       2.000  25.010  10.474  1.00  0.00     0.091 A 
HETATM    5  C   UNL     1       2.913  24.819  11.604  1.00  0.00     0.032 A 
HETATM    6  C   UNL     1       3.136  23.179   9.282  1.00  0.00     0.298 A 
HETATM    7  C   UNL     1       3.882  23.826  11.517  1.00  0.00     0.092 A 
HETATM    8  C   UNL     1       2.863  25.586  12.777  1.00  0.00     0.017 A 
HETATM    9  C   UNL     1       4.788  23.577  12.548  1.00  0.00     0.038 A 
HETATM   10  C   UNL     1       3.765  25.349  13.820  1.00  0.00     0.001 A 
HETATM   11  C   UNL     1       4.726  24.347  13.706  1.00  0.00     0.003 A 
ENDROOT
BRANCH   3  12
HETATM   12  C   UNL     1       1.206  24.338   8.160  1.00  0.00     0.067 C 
BRANCH  12  13
HETATM   13  C   UNL     1       1.354  25.718   7.488  1.00  0.00     0.092 C 
BRANCH  13  14
HETATM   14  C   UNL     1       2.370  25.740   6.354  1.00  0.00     0.124 C 
HETATM   15  O   UNL     1       3.583  25.828   6.543  1.00  0.00    -0.298 OA
HETATM   16  C   UNL     1       1.806  25.697   4.957  1.00  0.00     0.091 C 
ENDBRANCH  13  14
ENDBRANCH  12  13
BRANCH  12  17
HETATM   17  C   UNL     1      -0.237  24.007   8.509  1.00  0.00    -0.049 A 
HETATM   18  C   UNL     1      -1.277  24.507   7.724  1.00  0.00     0.008 A 
HETATM   19  C   UNL     1      -2.600  24.203   8.043  1.00  0.00     0.001 A 
HETATM   20  C   UNL     1      -2.884  23.401   9.148  1.00  0.00     0.000 A 
HETATM   21  C   UNL     1      -1.844  22.901   9.933  1.00  0.00     0.001 A 
HETATM   22  C   UNL     1      -0.520  23.204   9.613  1.00  0.00     0.008 A 
ENDBRANCH  12  17
ENDBRANCH   3  12
BRANCH   4  23
HETATM   23  O   UNL     1       1.076  26.020  10.650  1.00  0.00    -0.359 OA
HETATM   24  H   UNL     1       0.280  25.810  10.135  1.00  0.00     0.217 HD
ENDBRANCH   4  23
TORSDOF 5
ENDMDL
MODEL 12
REMARK VINA RESULT:    -3.792     12.757     15.351
REMARK INTER + INTRA:          -5.775
REMARK INTER:                  -4.893
REMARK INTRA:                  -0.882
REMARK UNBOUND:                -0.986
REMARK  5 active torsions:
REMARK  status: ('A' for Active; 'I' for Inactive)
REMARK    1  A    between atoms: O_2  and  C_9 
REMARK    2  A    between atoms: C_5  and  C_6 
REMARK    3  A    between atoms: C_5  and  C_7 
REMARK    4  A    between atoms: C_5  and  C_8 
REMARK    5  A    between atoms: C_7  and  C_12 
ROOT
HETATM    1  O   UNL     1      10.910  23.801  -1.210  1.00  0.00    -0.274 OA
HETATM    2  O   UNL     1      10.525  24.853   0.769  1.00  0.00    -0.259 OA
HETATM    3  C   UNL     1       8.847  23.326   0.047  1.00  0.00     0.060 A 
HETATM    4  C   UNL     1       8.463  22.454  -0.904  1.00  0.00     0.091 A 
HETATM    5  C   UNL     1       9.297  22.206  -2.082  1.00  0.00     0.032 A 
HETATM    6  C   UNL     1      10.143  24.056  -0.083  1.00  0.00     0.298 A 
HETATM    7  C   UNL     1      10.501  22.891  -2.201  1.00  0.00     0.092 A 
HETATM    8  C   UNL     1       8.947  21.313  -3.104  1.00  0.00     0.017 A 
HETATM    9  C   UNL     1      11.354  22.715  -3.290  1.00  0.00     0.038 A 
HETATM   10  C   UNL     1       9.791  21.125  -4.204  1.00  0.00     0.001 A 
HETATM   11  C   UNL     1      10.993  21.825  -4.297  1.00  0.00     0.003 A 
ENDROOT
BRANCH   3  12
HETATM   12  C   UNL     1       8.071  23.668   1.289  1.00  0.00     0.067 C 
BRANCH  12  13
HETATM   13  C   UNL     1       7.917  22.429   2.192  1.00  0.00     0.092 C 
BRANCH  13  14
HETATM   14  C   UNL     1       8.918  22.378   3.339  1.00  0.00     0.124 C 
HETATM   15  O   UNL     1       9.947  21.706   3.300  1.00  0.00    -0.298 OA
HETATM   16  C   UNL     1       8.559  23.172   4.569  1.00  0.00     0.091 C 
ENDBRANCH  13  14
ENDBRANCH  12  13
BRANCH  12  17
HETATM   17  C   UNL     1       6.736  24.310   0.941  1.00  0.00    -0.049 A 
HETATM   18  C   UNL     1       5.627  24.102   1.762  1.00  0.00     0.008 A 
HETATM   19  C   UNL     1       4.403  24.691   1.443  1.00  0.00     0.001 A 
HETATM   20  C   UNL     1       4.287  25.485   0.303  1.00  0.00     0.000 A 
HETATM   21  C   UNL     1       5.396  25.692  -0.518  1.00  0.00     0.001 A 
HETATM   22  C   UNL     1       6.621  25.105  -0.199  1.00  0.00     0.008 A 
ENDBRANCH  12  17
ENDBRANCH   3  12
BRANCH   4  23
HETATM   23  O   UNL     1       7.290  21.728  -0.871  1.00  0.00    -0.359 OA
HETATM   24  H   UNL     1       6.722  22.078  -0.166  1.00  0.00     0.217 HD
ENDBRANCH   4  23
TORSDOF 5
ENDMDL
MODEL 13
REMARK VINA RESULT:    -3.769      7.886     10.762
REMARK INTER + INTRA:          -5.746
REMARK INTER:                  -4.850
REMARK INTRA:                  -0.895
REMARK UNBOUND:                -0.986
REMARK  5 active torsions:
REMARK  status: ('A' for Active; 'I' for Inactive)
REMARK    1  A    between atoms: O_2  and  C_9 
REMARK    2  A    between atoms: C_5  and  C_6 
REMARK    3  A    between atoms: C_5  and  C_7 
REMARK    4  A    between atoms: C_5  and  C_8 
REMARK    5  A    between atoms: C_7  and  C_12 
ROOT
HETATM    1  O   UNL     1       7.925  25.142   5.326  1.00  0.00    -0.274 OA
HETATM    2  O   UNL     1       5.963  26.166   5.850  1.00  0.00    -0.259 OA
HETATM    3  C   UNL     1       5.802  24.216   4.493  1.00  0.00     0.060 A 
HETATM    4  C   UNL     1       6.470  23.222   3.879  1.00  0.00     0.091 A 
HETATM    5  C   UNL     1       7.931  23.135   3.956  1.00  0.00     0.032 A 
HETATM    6  C   UNL     1       6.543  25.250   5.273  1.00  0.00     0.298 A 
HETATM    7  C   UNL     1       8.618  24.103   4.680  1.00  0.00     0.092 A 
HETATM    8  C   UNL     1       8.680  22.126   3.334  1.00  0.00     0.017 A 
HETATM    9  C   UNL     1      10.007  24.095   4.802  1.00  0.00     0.038 A 
HETATM   10  C   UNL     1      10.074  22.104   3.447  1.00  0.00     0.001 A 
HETATM   11  C   UNL     1      10.737  23.087   4.180  1.00  0.00     0.003 A 
ENDROOT
BRANCH   3  12
HETATM   12  C   UNL     1       4.310  24.412   4.475  1.00  0.00     0.067 C 
BRANCH  12  13
HETATM   13  C   UNL     1       3.596  23.210   5.123  1.00  0.00     0.092 C 
BRANCH  13  14
HETATM   14  C   UNL     1       3.087  23.487   6.531  1.00  0.00     0.124 C 
HETATM   15  O   UNL     1       3.514  22.901   7.524  1.00  0.00    -0.298 OA
HETATM   16  C   UNL     1       1.977  24.499   6.648  1.00  0.00     0.091 C 
ENDBRANCH  13  14
ENDBRANCH  12  13
BRANCH  12  17
HETATM   17  C   UNL     1       3.814  24.700   3.066  1.00  0.00    -0.049 A 
HETATM   18  C   UNL     1       2.551  24.260   2.667  1.00  0.00     0.008 A 
HETATM   19  C   UNL     1       2.096  24.524   1.376  1.00  0.00     0.001 A 
HETATM   20  C   UNL     1       2.903  25.227   0.482  1.00  0.00     0.000 A 
HETATM   21  C   UNL     1       4.166  25.667   0.880  1.00  0.00     0.001 A 
HETATM   22  C   UNL     1       4.621  25.404   2.172  1.00  0.00     0.008 A 
ENDBRANCH  12  17
ENDBRANCH   3  12
BRANCH   4  23
HETATM   23  O   UNL     1       5.876  22.218   3.142  1.00  0.00    -0.359 OA
HETATM   24  H   UNL     1       5.277  22.617   2.491  1.00  0.00     0.217 HD
ENDBRANCH   4  23
TORSDOF 5
ENDMDL
MODEL 14
REMARK VINA RESULT:    -3.751      2.212      6.491
REMARK INTER + INTRA:          -5.723
REMARK INTER:                  -5.255
REMARK INTRA:                  -0.468
REMARK UNBOUND:                -0.986
REMARK  5 active torsions:
REMARK  status: ('A' for Active; 'I' for Inactive)
REMARK    1  A    between atoms: O_2  and  C_9 
REMARK    2  A    between atoms: C_5  and  C_6 
REMARK    3  A    between atoms: C_5  and  C_7 
REMARK    4  A    between atoms: C_5  and  C_8 
REMARK    5  A    between atoms: C_7  and  C_12 
ROOT
HETATM    1  O   UNL     1      -2.772  22.930   9.647  1.00  0.00    -0.274 OA
HETATM    2  O   UNL     1      -0.632  22.168   9.760  1.00  0.00    -0.259 OA
HETATM    3  C   UNL     1      -0.900  24.475   9.236  1.00  0.00     0.060 A 
HETATM    4  C   UNL     1      -1.770  25.483   9.036  1.00  0.00     0.091 A 
HETATM    5  C   UNL     1      -3.215  25.262   9.130  1.00  0.00     0.032 A 
HETATM    6  C   UNL     1      -1.398  23.107   9.566  1.00  0.00     0.298 A 
HETATM    7  C   UNL     1      -3.675  23.985   9.434  1.00  0.00     0.092 A 
HETATM    8  C   UNL     1      -4.167  26.271   8.929  1.00  0.00     0.017 A 
HETATM    9  C   UNL     1      -5.034  23.689   9.541  1.00  0.00     0.038 A 
HETATM   10  C   UNL     1      -5.534  25.991   9.033  1.00  0.00     0.001 A 
HETATM   11  C   UNL     1      -5.966  24.702   9.339  1.00  0.00     0.003 A 
ENDROOT
BRANCH   3  12
HETATM   12  C   UNL     1       0.598  24.580   9.154  1.00  0.00     0.067 C 
BRANCH  12  13
HETATM   13  C   UNL     1       1.090  25.870   9.840  1.00  0.00     0.092 C 
BRANCH  13  14
HETATM   14  C   UNL     1       1.297  25.724  11.342  1.00  0.00     0.124 C 
HETATM   15  O   UNL     1       0.530  26.209  12.173  1.00  0.00    -0.298 OA
HETATM   16  C   UNL     1       2.536  24.983  11.772  1.00  0.00     0.091 C 
ENDBRANCH  13  14
ENDBRANCH  12  13
BRANCH  12  17
HETATM   17  C   UNL     1       1.078  24.461   7.715  1.00  0.00    -0.049 A 
HETATM   18  C   UNL     1       0.230  24.815   6.666  1.00  0.00     0.008 A 
HETATM   19  C   UNL     1       0.670  24.706   5.347  1.00  0.00     0.001 A 
HETATM   20  C   UNL     1       1.957  24.243   5.077  1.00  0.00     0.000 A 
HETATM   21  C   UNL     1       2.805  23.889   6.126  1.00  0.00     0.001 A 
HETATM   22  C   UNL     1       2.366  23.998   7.446  1.00  0.00     0.008 A 
ENDBRANCH  12  17
ENDBRANCH   3  12
BRANCH   4  23
HETATM   23  O   UNL     1      -1.408  26.780   8.734  1.00  0.00    -0.359 OA
HETATM   24  H   UNL     1      -0.705  27.061   9.343  1.00  0.00     0.217 HD
ENDBRANCH   4  23
TORSDOF 5
ENDMDL
MODEL 15
REMARK VINA RESULT:    -3.737     13.684     15.658
REMARK INTER + INTRA:          -5.706
REMARK INTER:                  -4.597
REMARK INTRA:                  -1.108
REMARK UNBOUND:                -0.986
REMARK  5 active torsions:
REMARK  status: ('A' for Active; 'I' for Inactive)
REMARK    1  A    between atoms: O_2  and  C_9 
REMARK    2  A    between atoms: C_5  and  C_6 
REMARK    3  A    between atoms: C_5  and  C_7 
REMARK    4  A    between atoms: C_5  and  C_8 
REMARK    5  A    between atoms: C_7  and  C_12 
ROOT
HETATM    1  O   UNL     1      10.519  25.715   2.203  1.00  0.00    -0.274 OA
HETATM    2  O   UNL     1      10.207  26.563   0.116  1.00  0.00    -0.259 OA
HETATM    3  C   UNL     1       9.297  24.400   0.519  1.00  0.00     0.060 A 
HETATM    4  C   UNL     1       9.118  23.410   1.414  1.00  0.00     0.091 A 
HETATM    5  C   UNL     1       9.644  23.522   2.777  1.00  0.00     0.032 A 
HETATM    6  C   UNL     1      10.032  25.640   0.906  1.00  0.00     0.298 A 
HETATM    7  C   UNL     1      10.333  24.677   3.132  1.00  0.00     0.092 A 
HETATM    8  C   UNL     1       9.493  22.524   3.749  1.00  0.00     0.017 A 
HETATM    9  C   UNL     1      10.866  24.863   4.407  1.00  0.00     0.038 A 
HETATM   10  C   UNL     1      10.022  22.695   5.033  1.00  0.00     0.001 A 
HETATM   11  C   UNL     1      10.707  23.863   5.361  1.00  0.00     0.003 A 
ENDROOT
BRANCH   3  12
HETATM   12  C   UNL     1       8.813  24.392  -0.906  1.00  0.00     0.067 C 
BRANCH  12  13
HETATM   13  C   UNL     1       7.274  24.330  -0.957  1.00  0.00     0.092 C 
BRANCH  13  14
HETATM   14  C   UNL     1       6.628  25.592  -1.513  1.00  0.00     0.124 C 
HETATM   15  O   UNL     1       5.452  25.887  -1.309  1.00  0.00    -0.298 OA
HETATM   16  C   UNL     1       7.504  26.458  -2.382  1.00  0.00     0.091 C 
ENDBRANCH  13  14
ENDBRANCH  12  13
BRANCH  12  17
HETATM   17  C   UNL     1       9.472  23.275  -1.701  1.00  0.00    -0.049 A 
HETATM   18  C   UNL     1       8.740  22.139  -2.048  1.00  0.00     0.008 A 
HETATM   19  C   UNL     1       9.344  21.115  -2.776  1.00  0.00     0.001 A 
HETATM   20  C   UNL     1      10.681  21.225  -3.158  1.00  0.00     0.000 A 
HETATM   21  C   UNL     1      11.413  22.361  -2.811  1.00  0.00     0.001 A 
HETATM   22  C   UNL     1      10.809  23.386  -2.083  1.00  0.00     0.008 A 
ENDBRANCH  12  17
ENDBRANCH   3  12
BRANCH   4  23
HETATM   23  O   UNL     1       8.448  22.233   1.155  1.00  0.00    -0.359 OA
HETATM   24  H   UNL     1       7.766  22.399   0.484  1.00  0.00     0.217 HD
ENDBRANCH   4  23
TORSDOF 5
ENDMDL
MODEL 16
REMARK VINA RESULT:    -3.708      7.886     10.603
REMARK INTER + INTRA:          -5.669
REMARK INTER:                  -5.370
REMARK INTRA:                  -0.299
REMARK UNBOUND:                -0.986
REMARK  5 active torsions:
REMARK  status: ('A' for Active; 'I' for Inactive)
REMARK    1  A    between atoms: O_2  and  C_9 
REMARK    2  A    between atoms: C_5  and  C_6 
REMARK    3  A    between atoms: C_5  and  C_7 
REMARK    4  A    between atoms: C_5  and  C_8 
REMARK    5  A    between atoms: C_7  and  C_12 
ROOT
HETATM    1  O   UNL     1       7.267  22.020   2.939  1.00  0.00    -0.274 OA
HETATM    2  O   UNL     1       5.014  21.935   2.638  1.00  0.00    -0.259 OA
HETATM    3  C   UNL     1       5.801  23.503   4.247  1.00  0.00     0.060 A 
HETATM    4  C   UNL     1       6.876  24.033   4.860  1.00  0.00     0.091 A 
HETATM    5  C   UNL     1       8.230  23.573   4.540  1.00  0.00     0.032 A 
HETATM    6  C   UNL     1       5.973  22.435   3.219  1.00  0.00     0.298 A 
HETATM    7  C   UNL     1       8.385  22.575   3.584  1.00  0.00     0.092 A 
HETATM    8  C   UNL     1       9.385  24.085   5.147  1.00  0.00     0.017 A 
HETATM    9  C   UNL     1       9.637  22.079   3.221  1.00  0.00     0.038 A 
HETATM   10  C   UNL     1      10.649  23.599   4.795  1.00  0.00     0.001 A 
HETATM   11  C   UNL     1      10.775  22.598   3.833  1.00  0.00     0.003 A 
ENDROOT
BRANCH   3  12
HETATM   12  C   UNL     1       4.369  23.887   4.502  1.00  0.00     0.067 C 
BRANCH  12  13
HETATM   13  C   UNL     1       3.605  22.724   5.167  1.00  0.00     0.092 C 
BRANCH  13  14
HETATM   14  C   UNL     1       3.293  22.959   6.639  1.00  0.00     0.124 C 
HETATM   15  O   UNL     1       3.633  22.180   7.527  1.00  0.00    -0.298 OA
HETATM   16  C   UNL     1       2.490  24.194   6.958  1.00  0.00     0.091 C 
ENDBRANCH  13  14
ENDBRANCH  12  13
BRANCH  12  17
HETATM   17  C   UNL     1       3.698  24.376   3.227  1.00  0.00    -0.049 A 
HETATM   18  C   UNL     1       2.434  23.901   2.877  1.00  0.00     0.008 A 
HETATM   19  C   UNL     1       1.820  24.350   1.708  1.00  0.00     0.001 A 
HETATM   20  C   UNL     1       2.468  25.273   0.889  1.00  0.00     0.000 A 
HETATM   21  C   UNL     1       3.732  25.749   1.240  1.00  0.00     0.001 A 
HETATM   22  C   UNL     1       4.347  25.301   2.409  1.00  0.00     0.008 A 
ENDBRANCH  12  17
ENDBRANCH   3  12
BRANCH   4  23
HETATM   23  O   UNL     1       6.821  25.027   5.816  1.00  0.00    -0.359 OA
HETATM   24  H   UNL     1       6.471  25.836   5.409  1.00  0.00     0.217 HD
ENDBRANCH   4  23
TORSDOF 5
ENDMDL
MODEL 17
REMARK VINA RESULT:    -3.681      3.401      7.021
REMARK INTER + INTRA:          -5.635
REMARK INTER:                  -4.650
REMARK INTRA:                  -0.985
REMARK UNBOUND:                -0.986
REMARK  5 active torsions:
REMARK  status: ('A' for Active; 'I' for Inactive)
REMARK    1  A    between atoms: O_2  and  C_9 
REMARK    2  A    between atoms: C_5  and  C_6 
REMARK    3  A    between atoms: C_5  and  C_7 
REMARK    4  A    between atoms: C_5  and  C_8 
REMARK    5  A    between atoms: C_7  and  C_12 
ROOT
HETATM    1  O   UNL     1       2.602  25.960  13.412  1.00  0.00    -0.274 OA
HETATM    2  O   UNL     1       0.834  26.584  12.124  1.00  0.00    -0.259 OA
HETATM    3  C   UNL     1       2.282  24.937  11.196  1.00  0.00     0.060 A 
HETATM    4  C   UNL     1       3.384  24.185  11.379  1.00  0.00     0.091 A 
HETATM    5  C   UNL     1       4.169  24.285  12.612  1.00  0.00     0.032 A 
HETATM    6  C   UNL     1       1.837  25.888  12.257  1.00  0.00     0.298 A 
HETATM    7  C   UNL     1       3.752  25.175  13.596  1.00  0.00     0.092 A 
HETATM    8  C   UNL     1       5.325  23.530  12.857  1.00  0.00     0.017 A 
HETATM    9  C   UNL     1       4.442  25.333  14.798  1.00  0.00     0.038 A 
HETATM   10  C   UNL     1       6.029  23.676  14.058  1.00  0.00     0.001 A 
HETATM   11  C   UNL     1       5.588  24.576  15.027  1.00  0.00     0.003 A 
ENDROOT
BRANCH   3  12
HETATM   12  C   UNL     1       1.408  24.928   9.972  1.00  0.00     0.067 C 
BRANCH  12  13
HETATM   13  C   UNL     1       0.520  23.668   9.949  1.00  0.00     0.092 C 
BRANCH  13  14
HETATM   14  C   UNL     1      -0.966  23.964  10.105  1.00  0.00     0.124 C 
HETATM   15  O   UNL     1      -1.399  24.841  10.851  1.00  0.00    -0.298 OA
HETATM   16  C   UNL     1      -1.904  23.082   9.321  1.00  0.00     0.091 C 
ENDBRANCH  13  14
ENDBRANCH  12  13
BRANCH  12  17
HETATM   17  C   UNL     1       2.237  25.085   8.706  1.00  0.00    -0.049 A 
HETATM   18  C   UNL     1       3.068  26.194   8.549  1.00  0.00     0.008 A 
HETATM   19  C   UNL     1       3.828  26.337   7.388  1.00  0.00     0.001 A 
HETATM   20  C   UNL     1       3.756  25.373   6.384  1.00  0.00     0.000 A 
HETATM   21  C   UNL     1       2.925  24.264   6.541  1.00  0.00     0.001 A 
HETATM   22  C   UNL     1       2.165  24.119   7.702  1.00  0.00     0.008 A 
ENDBRANCH  12  17
ENDBRANCH   3  12
BRANCH   4  23
HETATM   23  O   UNL     1       3.871  23.275  10.464  1.00  0.00    -0.359 OA
HETATM   24  H   UNL     1       3.284  22.502  10.445  1.00  0.00     0.217 HD
ENDBRANCH   4  23
TORSDOF 5
ENDMDL
MODEL 18
REMARK VINA RESULT:    -3.625      9.760     12.918
REMARK INTER + INTRA:          -5.564
REMARK INTER:                  -4.397
REMARK INTRA:                  -1.167
REMARK UNBOUND:                -0.986
REMARK  5 active torsions:
REMARK  status: ('A' for Active; 'I' for Inactive)
REMARK    1  A    between atoms: O_2  and  C_9 
REMARK    2  A    between atoms: C_5  and  C_6 
REMARK    3  A    between atoms: C_5  and  C_7 
REMARK    4  A    between atoms: C_5  and  C_8 
REMARK    5  A    between atoms: C_7  and  C_12 
ROOT
HETATM    1  O   UNL     1       4.471  25.533   0.760  1.00  0.00    -0.274 OA
HETATM    2  O   UNL     1       6.550  25.553  -0.162  1.00  0.00    -0.259 OA
HETATM    3  C   UNL     1       6.154  23.897   1.502  1.00  0.00     0.060 A 
HETATM    4  C   UNL     1       5.264  23.363   2.360  1.00  0.00     0.091 A 
HETATM    5  C   UNL     1       3.905  23.899   2.467  1.00  0.00     0.032 A 
HETATM    6  C   UNL     1       5.765  25.047   0.635  1.00  0.00     0.298 A 
HETATM    7  C   UNL     1       3.548  24.973   1.660  1.00  0.00     0.092 A 
HETATM    8  C   UNL     1       2.938  23.387   3.344  1.00  0.00     0.017 A 
HETATM    9  C   UNL     1       2.276  25.544   1.700  1.00  0.00     0.038 A 
HETATM   10  C   UNL     1       1.657  23.948   3.396  1.00  0.00     0.001 A 
HETATM   11  C   UNL     1       1.326  25.024   2.575  1.00  0.00     0.003 A 
ENDROOT
BRANCH   3  12
HETATM   12  C   UNL     1       7.575  23.439   1.315  1.00  0.00     0.067 C 
BRANCH  12  13
HETATM   13  C   UNL     1       7.615  22.049   0.650  1.00  0.00     0.092 C 
BRANCH  13  14
HETATM   14  C   UNL     1       7.970  22.089  -0.831  1.00  0.00     0.124 C 
HETATM   15  O   UNL     1       7.534  21.277  -1.645  1.00  0.00    -0.298 OA
HETATM   16  C   UNL     1       8.939  23.163  -1.252  1.00  0.00     0.091 C 
ENDBRANCH  13  14
ENDBRANCH  12  13
BRANCH  12  17
HETATM   17  C   UNL     1       8.342  23.483   2.628  1.00  0.00    -0.049 A 
HETATM   18  C   UNL     1       8.396  24.667   3.365  1.00  0.00     0.008 A 
HETATM   19  C   UNL     1       9.099  24.707   4.569  1.00  0.00     0.001 A 
HETATM   20  C   UNL     1       9.748  23.564   5.036  1.00  0.00     0.000 A 
HETATM   21  C   UNL     1       9.693  22.381   4.300  1.00  0.00     0.001 A 
HETATM   22  C   UNL     1       8.990  22.339   3.095  1.00  0.00     0.008 A 
ENDBRANCH  12  17
ENDBRANCH   3  12
BRANCH   4  23
HETATM   23  O   UNL     1       5.526  22.297   3.196  1.00  0.00    -0.359 OA
HETATM   24  H   UNL     1       5.794  21.534   2.659  1.00  0.00     0.217 HD
ENDBRANCH   4  23
TORSDOF 5
ENDMDL
MODEL 19
REMARK VINA RESULT:    -3.582      3.788      7.287
REMARK INTER + INTRA:          -5.510
REMARK INTER:                  -4.525
REMARK INTRA:                  -0.986
REMARK UNBOUND:                -0.986
REMARK  5 active torsions:
REMARK  status: ('A' for Active; 'I' for Inactive)
REMARK    1  A    between atoms: O_2  and  C_9 
REMARK    2  A    between atoms: C_5  and  C_6 
REMARK    3  A    between atoms: C_5  and  C_7 
REMARK    4  A    between atoms: C_5  and  C_8 
REMARK    5  A    between atoms: C_7  and  C_12 
ROOT
HETATM    1  O   UNL     1      -0.294  23.497   8.412  1.00  0.00    -0.274 OA
HETATM    2  O   UNL     1       1.906  23.782   7.907  1.00  0.00    -0.259 OA
HETATM    3  C   UNL     1       0.356  25.018   6.589  1.00  0.00     0.060 A 
HETATM    4  C   UNL     1      -0.940  25.308   6.363  1.00  0.00     0.091 A 
HETATM    5  C   UNL     1      -2.001  24.693   7.165  1.00  0.00     0.032 A 
HETATM    6  C   UNL     1       0.734  24.063   7.672  1.00  0.00     0.298 A 
HETATM    7  C   UNL     1      -1.644  23.801   8.170  1.00  0.00     0.092 A 
HETATM    8  C   UNL     1      -3.365  24.954   6.974  1.00  0.00     0.017 A 
HETATM    9  C   UNL     1      -2.591  23.171   8.977  1.00  0.00     0.038 A 
HETATM   10  C   UNL     1      -4.328  24.331   7.775  1.00  0.00     0.001 A 
HETATM   11  C   UNL     1      -3.941  23.441   8.775  1.00  0.00     0.003 A 
ENDROOT
BRANCH   3  12
HETATM   12  C   UNL     1       1.525  25.577   5.826  1.00  0.00     0.067 C 
BRANCH  12  13
HETATM   13  C   UNL     1       1.841  27.012   6.291  1.00  0.00     0.092 C 
BRANCH  13  14
HETATM   14  C   UNL     1       3.056  27.106   7.205  1.00  0.00     0.124 C 
HETATM   15  O   UNL     1       2.968  27.145   8.432  1.00  0.00    -0.298 OA
HETATM   16  C   UNL     1       4.395  27.198   6.521  1.00  0.00     0.091 C 
ENDBRANCH  13  14
ENDBRANCH  12  13
BRANCH  12  17
HETATM   17  C   UNL     1       1.294  25.485   4.325  1.00  0.00    -0.049 A 
HETATM   18  C   UNL     1       1.267  26.644   3.550  1.00  0.00     0.008 A 
HETATM   19  C   UNL     1       1.056  26.559   2.174  1.00  0.00     0.001 A 
HETATM   20  C   UNL     1       0.870  25.315   1.573  1.00  0.00     0.000 A 
HETATM   21  C   UNL     1       0.896  24.155   2.348  1.00  0.00     0.001 A 
HETATM   22  C   UNL     1       1.109  24.239   3.724  1.00  0.00     0.008 A 
ENDBRANCH  12  17
ENDBRANCH   3  12
BRANCH   4  23
HETATM   23  O   UNL     1      -1.389  26.181   5.394  1.00  0.00    -0.359 OA
HETATM   24  H   UNL     1      -1.884  26.899   5.821  1.00  0.00     0.217 HD
ENDBRANCH   4  23
TORSDOF 5
ENDMDL
