MODEL 1
REMARK VINA RESULT:    -8.084      0.000      0.000
REMARK INTER + INTRA:         -11.619
REMARK INTER:                 -10.833
REMARK INTRA:                  -0.785
REMARK UNBOUND:                -1.172
REMARK  6 active torsions:
REMARK  status: ('A' for Active; 'I' for Inactive)
REMARK    1  A    between atoms: O_5  and  C_15 
REMARK    2  A    between atoms: C_14  and  C_15 
REMARK    3  A    between atoms: C_20  and  C_21 
REMARK    4  A    between atoms: C_26  and  C_29 
REMARK    5  A    between atoms: O_36  and  C_41 
REMARK    6  A    between atoms: C_39  and  C_41 
ROOT
HETATM    1 CL   UNK A   1       1.931  15.322  33.811  1.00  0.00    -0.111 Cl
HETATM    2 CL   UNK A   1       3.186  12.298  33.928  1.00  0.00    -0.112 Cl
HETATM    3  O   UNK A   1       0.978  14.693  36.743  1.00  0.00    -0.270 OA
HETATM    4  O   UNK A   1       6.233  13.304  37.912  1.00  0.00    -0.270 OA
HETATM    5  N   UNK A   1       4.547  14.037  36.524  1.00  0.00    -0.310 N 
HETATM    6  N   UNK A   1       4.637  13.749  40.082  1.00  0.00    -0.337 N 
HETATM    7  C   UNK A   1       3.326  14.795  36.197  1.00  0.00     0.179 C 
HETATM    8  C   UNK A   1       3.437  14.978  34.674  1.00  0.00     0.126 C 
HETATM    9  C   UNK A   1       4.203  13.744  34.178  1.00  0.00     0.120 C 
HETATM   10  C   UNK A   1       5.186  13.504  35.320  1.00  0.00     0.122 C 
HETATM   11  C   UNK A   1       2.050  14.088  36.684  1.00  0.00     0.252 C 
HETATM   12  C   UNK A   1       5.175  13.923  37.758  1.00  0.00     0.257 C 
HETATM   13  C   UNK A   1       4.524  14.642  38.936  1.00  0.00     0.189 C 
HETATM   14  H   UNK A   1       5.562  13.409  40.330  1.00  0.00     0.164 HD
HETATM   15  O   UNK A   2       2.934  10.437  38.140  1.00  0.00    -0.271 OA
HETATM   16  N   UNK A   2       2.202  12.748  36.984  1.00  0.00    -0.337 N 
HETATM   17  C   UNK A   2       1.128  11.912  37.497  1.00  0.00     0.159 C 
HETATM   18  C   UNK A   2       1.777  10.809  38.324  1.00  0.00     0.251 C 
HETATM   19  H   UNK A   2       3.109  12.317  36.834  1.00  0.00     0.164 HD
HETATM   20  O   UNK A   0       2.376  13.651  40.609  1.00  0.00    -0.272 OA
HETATM   21  C   UNK A   0       2.745  11.749  42.677  1.00  0.00     0.112 C 
HETATM   22  C   UNK A   0       3.948  12.355  41.925  1.00  0.00     0.114 C 
HETATM   23  C   UNK A   0       3.539  13.312  40.812  1.00  0.00     0.233 C 
HETATM   24  O   UNK A   3       3.343   9.138  41.435  1.00  0.00    -0.270 OA
HETATM   25  N   UNK A   3       0.908  10.282  39.271  1.00  0.00    -0.336 N 
HETATM   26  N   UNK A   3       1.916  10.940  41.778  1.00  0.00    -0.341 N 
HETATM   27  C   UNK A   3       1.262   9.216  40.204  1.00  0.00     0.189 C 
HETATM   28  C   UNK A   3       2.313   9.753  41.174  1.00  0.00     0.253 C 
HETATM   29  H   UNK A   3      -0.039  10.645  39.322  1.00  0.00     0.164 HD
HETATM   30  H   UNK A   3       1.013  11.327  41.520  1.00  0.00     0.163 HD
ENDROOT
BRANCH  21  31
HETATM   31  C   UNK A   0       3.073  11.002  43.959  1.00  0.00    -0.002 A 
HETATM   32  C   UNK A   0       2.185  10.048  44.456  1.00  0.00    -0.003 A 
HETATM   33  C   UNK A   0       2.485   9.362  45.631  1.00  0.00    -0.000 A 
HETATM   34  C   UNK A   0       3.674   9.629  46.311  1.00  0.00    -0.000 A 
HETATM   35  C   UNK A   0       4.563  10.582  45.813  1.00  0.00    -0.000 A 
HETATM   36  C   UNK A   0       4.261  11.269  44.637  1.00  0.00    -0.003 A 
ENDBRANCH  21  31
BRANCH  27  37
HETATM   37  C   UNK A   3       1.683   7.928  39.508  1.00  0.00     0.169 C 
BRANCH  37  38
HETATM   38  O   UNK A   3       1.744   6.891  40.471  1.00  0.00    -0.380 OA
HETATM   39  H   UNK A   3       2.115   6.104  40.037  1.00  0.00     0.211 HD
ENDBRANCH  37  38
ENDBRANCH  27  37
BRANCH  13  40
HETATM   40  C   UNK A   1       5.243  15.957  39.205  1.00  0.00     0.169 C 
BRANCH  40  41
HETATM   41  O   UNK A   1       4.539  17.001  38.556  1.00  0.00    -0.380 OA
HETATM   42  H   UNK A   1       3.865  16.587  37.991  1.00  0.00     0.211 HD
ENDBRANCH  40  41
ENDBRANCH  13  40
BRANCH  17  43
HETATM   43  C   UNK A   2       0.299  11.316  36.369  1.00  0.00     0.032 C 
HETATM   44  C   UNK A   2      -1.139  11.803  36.417  1.00  0.00     0.003 C 
ENDBRANCH  17  43
TORSDOF 6
ENDMDL
MODEL 2
REMARK VINA RESULT:    -8.081     27.697     31.780
REMARK INTER + INTRA:         -11.615
REMARK INTER:                 -10.550
REMARK INTRA:                  -1.066
REMARK UNBOUND:                -1.172
REMARK  6 active torsions:
REMARK  status: ('A' for Active; 'I' for Inactive)
REMARK    1  A    between atoms: O_5  and  C_15 
REMARK    2  A    between atoms: C_14  and  C_15 
REMARK    3  A    between atoms: C_20  and  C_21 
REMARK    4  A    between atoms: C_26  and  C_29 
REMARK    5  A    between atoms: O_36  and  C_41 
REMARK    6  A    between atoms: C_39  and  C_41 
ROOT
HETATM    1 CL   UNK A   1     -20.327 -16.803  39.663  1.00  0.00    -0.111 Cl
HETATM    2 CL   UNK A   1     -21.280 -14.168  41.361  1.00  0.00    -0.112 Cl
HETATM    3  O   UNK A   1     -19.003 -14.688  37.745  1.00  0.00    -0.270 OA
HETATM    4  O   UNK A   1     -16.514 -12.521  42.219  1.00  0.00    -0.270 OA
HETATM    5  N   UNK A   1     -17.883 -14.028  41.140  1.00  0.00    -0.310 N 
HETATM    6  N   UNK A   1     -15.455 -11.766  39.818  1.00  0.00    -0.337 N 
HETATM    7  C   UNK A   1     -18.269 -14.919  40.032  1.00  0.00     0.179 C 
HETATM    8  C   UNK A   1     -19.208 -15.926  40.718  1.00  0.00     0.126 C 
HETATM    9  C   UNK A   1     -19.870 -15.142  41.858  1.00  0.00     0.120 C 
HETATM   10  C   UNK A   1     -18.735 -14.230  42.313  1.00  0.00     0.122 C 
HETATM   11  C   UNK A   1     -18.879 -14.151  38.847  1.00  0.00     0.252 C 
HETATM   12  C   UNK A   1     -16.777 -13.190  41.214  1.00  0.00     0.257 C 
HETATM   13  C   UNK A   1     -15.850 -13.157  40.002  1.00  0.00     0.189 C 
HETATM   14  H   UNK A   1     -15.038 -11.282  40.608  1.00  0.00     0.164 HD
HETATM   15  O   UNK A   2     -19.380 -10.269  39.797  1.00  0.00    -0.271 OA
HETATM   16  N   UNK A   2     -19.309 -12.871  39.139  1.00  0.00    -0.337 N 
HETATM   17  C   UNK A   2     -19.877 -11.969  38.149  1.00  0.00     0.159 C 
HETATM   18  C   UNK A   2     -19.578 -10.550  38.617  1.00  0.00     0.251 C 
HETATM   19  H   UNK A   2     -19.232 -12.540  40.095  1.00  0.00     0.164 HD
HETATM   20  O   UNK A   0     -16.162 -11.544  37.616  1.00  0.00    -0.272 OA
HETATM   21  C   UNK A   0     -15.529  -8.784  37.492  1.00  0.00     0.112 C 
HETATM   22  C   UNK A   0     -15.196  -9.624  38.741  1.00  0.00     0.114 C 
HETATM   23  C   UNK A   0     -15.668 -11.069  38.635  1.00  0.00     0.233 C 
HETATM   24  O   UNK A   3     -17.533  -7.304  39.079  1.00  0.00    -0.270 OA
HETATM   25  N   UNK A   3     -19.578  -9.639  37.567  1.00  0.00    -0.336 N 
HETATM   26  N   UNK A   3     -16.980  -8.687  37.294  1.00  0.00    -0.341 N 
HETATM   27  C   UNK A   3     -19.318  -8.211  37.721  1.00  0.00     0.189 C 
HETATM   28  C   UNK A   3     -17.862  -8.029  38.143  1.00  0.00     0.253 C 
HETATM   29  H   UNK A   3     -19.780  -9.974  36.630  1.00  0.00     0.164 HD
HETATM   30  H   UNK A   3     -17.369  -9.214  36.518  1.00  0.00     0.163 HD
ENDROOT
BRANCH  21  31
HETATM   31  C   UNK A   0     -14.863  -7.421  37.413  1.00  0.00    -0.002 A 
HETATM   32  C   UNK A   0     -14.090  -6.960  38.479  1.00  0.00    -0.003 A 
HETATM   33  C   UNK A   0     -13.478  -5.709  38.407  1.00  0.00    -0.000 A 
HETATM   34  C   UNK A   0     -13.639  -4.918  37.269  1.00  0.00    -0.000 A 
HETATM   35  C   UNK A   0     -14.411  -5.380  36.203  1.00  0.00    -0.000 A 
HETATM   36  C   UNK A   0     -15.023  -6.631  36.276  1.00  0.00    -0.003 A 
ENDBRANCH  21  31
BRANCH  27  37
HETATM   37  C   UNK A   3     -20.309  -7.521  38.649  1.00  0.00     0.169 C 
BRANCH  37  38
HETATM   38  O   UNK A   3     -20.053  -6.127  38.631  1.00  0.00    -0.380 OA
HETATM   39  H   UNK A   3     -19.099  -6.002  38.491  1.00  0.00     0.211 HD
ENDBRANCH  37  38
ENDBRANCH  27  37
BRANCH  13  40
HETATM   40  C   UNK A   1     -14.631 -14.033  40.254  1.00  0.00     0.169 C 
BRANCH  40  41
HETATM   41  O   UNK A   1     -13.879 -14.123  39.058  1.00  0.00    -0.380 OA
HETATM   42  H   UNK A   1     -13.667 -15.062  38.921  1.00  0.00     0.211 HD
ENDBRANCH  40  41
ENDBRANCH  13  40
BRANCH  17  43
HETATM   43  C   UNK A   2     -21.376 -12.177  38.001  1.00  0.00     0.032 C 
HETATM   44  C   UNK A   2     -21.752 -12.528  36.572  1.00  0.00     0.003 C 
ENDBRANCH  17  43
TORSDOF 6
ENDMDL
MODEL 3
REMARK VINA RESULT:    -7.788     41.540     44.971
REMARK INTER + INTRA:         -11.236
REMARK INTER:                 -10.269
REMARK INTRA:                  -0.966
REMARK UNBOUND:                -1.172
REMARK  6 active torsions:
REMARK  status: ('A' for Active; 'I' for Inactive)
REMARK    1  A    between atoms: O_5  and  C_15 
REMARK    2  A    between atoms: C_14  and  C_15 
REMARK    3  A    between atoms: C_20  and  C_21 
REMARK    4  A    between atoms: C_26  and  C_29 
REMARK    5  A    between atoms: O_36  and  C_41 
REMARK    6  A    between atoms: C_39  and  C_41 
ROOT
HETATM    1 CL   UNK A   1     -22.951 -14.256   7.788  1.00  0.00    -0.111 Cl
HETATM    2 CL   UNK A   1     -20.721 -15.803   5.951  1.00  0.00    -0.112 Cl
HETATM    3  O   UNK A   1     -20.468 -13.445   9.545  1.00  0.00    -0.270 OA
HETATM    4  O   UNK A   1     -18.080 -11.551   4.895  1.00  0.00    -0.270 OA
HETATM    5  N   UNK A   1     -19.788 -12.528   6.093  1.00  0.00    -0.310 N 
HETATM    6  N   UNK A   1     -16.948 -10.682   7.223  1.00  0.00    -0.337 N 
HETATM    7  C   UNK A   1     -20.672 -12.691   7.262  1.00  0.00     0.179 C 
HETATM    8  C   UNK A   1     -21.910 -13.376   6.658  1.00  0.00     0.126 C 
HETATM    9  C   UNK A   1     -21.375 -14.208   5.486  1.00  0.00     0.120 C 
HETATM   10  C   UNK A   1     -20.256 -13.317   4.953  1.00  0.00     0.122 C 
HETATM   11  C   UNK A   1     -19.990 -13.455   8.409  1.00  0.00     0.252 C 
HETATM   12  C   UNK A   1     -18.725 -11.646   5.945  1.00  0.00     0.257 C 
HETATM   13  C   UNK A   1     -18.401 -10.745   7.133  1.00  0.00     0.189 C 
HETATM   14  H   UNK A   1     -16.433 -10.392   6.396  1.00  0.00     0.164 HD
HETATM   15  O   UNK A   2     -16.396 -14.845   7.233  1.00  0.00    -0.271 OA
HETATM   16  N   UNK A   2     -18.864 -14.171   8.048  1.00  0.00    -0.337 N 
HETATM   17  C   UNK A   2     -18.055 -14.926   8.992  1.00  0.00     0.159 C 
HETATM   18  C   UNK A   2     -16.639 -14.967   8.432  1.00  0.00     0.251 C 
HETATM   19  H   UNK A   2     -18.587 -14.178   7.072  1.00  0.00     0.164 HD
HETATM   20  O   UNK A   0     -16.752 -11.407   9.421  1.00  0.00    -0.272 OA
HETATM   21  C   UNK A   0     -13.919 -11.429   9.362  1.00  0.00     0.112 C 
HETATM   22  C   UNK A   0     -14.739 -10.918   8.160  1.00  0.00     0.114 C 
HETATM   23  C   UNK A   0     -16.244 -11.042   8.364  1.00  0.00     0.233 C 
HETATM   24  O   UNK A   3     -13.046 -13.730   7.729  1.00  0.00    -0.270 OA
HETATM   25  N   UNK A   3     -15.687 -15.171   9.424  1.00  0.00    -0.336 N 
HETATM   26  N   UNK A   3     -14.146 -12.862   9.584  1.00  0.00    -0.341 N 
HETATM   27  C   UNK A   3     -14.251 -15.249   9.177  1.00  0.00     0.189 C 
HETATM   28  C   UNK A   3     -13.765 -13.877   8.715  1.00  0.00     0.253 C 
HETATM   29  H   UNK A   3     -15.998 -15.284  10.384  1.00  0.00     0.164 HD
HETATM   30  H   UNK A   3     -14.698 -13.114  10.398  1.00  0.00     0.163 HD
ENDROOT
BRANCH  21  31
HETATM   31  C   UNK A   0     -12.437 -11.096   9.343  1.00  0.00    -0.002 A 
HETATM   32  C   UNK A   0     -11.857 -10.563   8.192  1.00  0.00    -0.003 A 
HETATM   33  C   UNK A   0     -10.497 -10.256   8.174  1.00  0.00    -0.000 A 
HETATM   34  C   UNK A   0      -9.716 -10.483   9.308  1.00  0.00    -0.000 A 
HETATM   35  C   UNK A   0     -10.296 -11.014  10.459  1.00  0.00    -0.000 A 
HETATM   36  C   UNK A   0     -11.656 -11.321  10.476  1.00  0.00    -0.003 A 
ENDBRANCH  21  31
BRANCH  27  37
HETATM   37  C   UNK A   3     -13.868 -16.378   8.228  1.00  0.00     0.169 C 
BRANCH  37  38
HETATM   38  O   UNK A   3     -12.455 -16.454   8.160  1.00  0.00    -0.380 OA
HETATM   39  H   UNK A   3     -12.193 -17.354   8.418  1.00  0.00     0.211 HD
ENDBRANCH  37  38
ENDBRANCH  27  37
BRANCH  13  40
HETATM   40  C   UNK A   1     -18.988  -9.358   6.910  1.00  0.00     0.169 C 
BRANCH  40  41
HETATM   41  O   UNK A   1     -20.374  -9.398   7.201  1.00  0.00    -0.380 OA
HETATM   42  H   UNK A   1     -20.823  -8.853   6.533  1.00  0.00     0.211 HD
ENDBRANCH  40  41
ENDBRANCH  13  40
BRANCH  17  43
HETATM   43  C   UNK A   2     -18.594 -16.336   9.183  1.00  0.00     0.032 C 
HETATM   44  C   UNK A   2     -18.931 -16.611  10.638  1.00  0.00     0.003 C 
ENDBRANCH  17  43
TORSDOF 6
ENDMDL
MODEL 4
REMARK VINA RESULT:    -7.655      1.992      4.663
REMARK INTER + INTRA:         -11.064
REMARK INTER:                 -10.042
REMARK INTRA:                  -1.022
REMARK UNBOUND:                -1.172
REMARK  6 active torsions:
REMARK  status: ('A' for Active; 'I' for Inactive)
REMARK    1  A    between atoms: O_5  and  C_15 
REMARK    2  A    between atoms: C_14  and  C_15 
REMARK    3  A    between atoms: C_20  and  C_21 
REMARK    4  A    between atoms: C_26  and  C_29 
REMARK    5  A    between atoms: O_36  and  C_41 
REMARK    6  A    between atoms: C_39  and  C_41 
ROOT
HETATM    1 CL   UNK A   1       2.171  12.964  32.886  1.00  0.00    -0.111 Cl
HETATM    2 CL   UNK A   1       2.340  15.446  35.019  1.00  0.00    -0.112 Cl
HETATM    3  O   UNK A   1       3.274  11.252  35.285  1.00  0.00    -0.270 OA
HETATM    4  O   UNK A   1      -0.882  13.296  38.360  1.00  0.00    -0.270 OA
HETATM    5  N   UNK A   1       0.338  13.070  36.418  1.00  0.00    -0.310 N 
HETATM    6  N   UNK A   1       0.346  11.083  39.386  1.00  0.00    -0.337 N 
HETATM    7  C   UNK A   1       1.116  12.324  35.414  1.00  0.00     0.179 C 
HETATM    8  C   UNK A   1       0.952  13.184  34.150  1.00  0.00     0.126 C 
HETATM    9  C   UNK A   1       0.798  14.622  34.661  1.00  0.00     0.120 C 
HETATM   10  C   UNK A   1       0.002  14.414  35.947  1.00  0.00     0.122 C 
HETATM   11  C   UNK A   1       2.568  12.081  35.862  1.00  0.00     0.252 C 
HETATM   12  C   UNK A   1      -0.192  12.595  37.612  1.00  0.00     0.257 C 
HETATM   13  C   UNK A   1       0.074  11.132  37.955  1.00  0.00     0.189 C 
HETATM   14  H   UNK A   1      -0.345  11.484  40.015  1.00  0.00     0.164 HD
HETATM   15  O   UNK A   2       3.328  14.040  39.298  1.00  0.00    -0.271 OA
HETATM   16  N   UNK A   2       3.005  12.887  36.895  1.00  0.00    -0.337 N 
HETATM   17  C   UNK A   2       4.329  12.787  37.488  1.00  0.00     0.159 C 
HETATM   18  C   UNK A   2       4.210  13.268  38.928  1.00  0.00     0.251 C 
HETATM   19  H   UNK A   2       2.373  13.593  37.259  1.00  0.00     0.164 HD
HETATM   20  O   UNK A   0       2.423  10.051  39.261  1.00  0.00    -0.272 OA
HETATM   21  C   UNK A   0       2.888  10.223  42.052  1.00  0.00     0.112 C 
HETATM   22  C   UNK A   0       1.550  10.678  41.436  1.00  0.00     0.114 C 
HETATM   23  C   UNK A   0       1.518  10.560  39.917  1.00  0.00     0.233 C 
HETATM   24  O   UNK A   3       3.486  13.038  42.716  1.00  0.00    -0.270 OA
HETATM   25  N   UNK A   3       5.212  12.751  39.740  1.00  0.00    -0.336 N 
HETATM   26  N   UNK A   3       3.995  11.069  41.591  1.00  0.00    -0.341 N 
HETATM   27  C   UNK A   3       5.342  13.039  41.165  1.00  0.00     0.189 C 
HETATM   28  C   UNK A   3       4.153  12.416  41.894  1.00  0.00     0.253 C 
HETATM   29  H   UNK A   3       5.909  12.140  39.327  1.00  0.00     0.164 HD
HETATM   30  H   UNK A   3       4.645  10.650  40.933  1.00  0.00     0.163 HD
ENDROOT
BRANCH  21  31
HETATM   31  C   UNK A   0       2.902  10.061  43.562  1.00  0.00    -0.002 A 
HETATM   32  C   UNK A   0       1.796  10.457  44.315  1.00  0.00    -0.003 A 
HETATM   33  C   UNK A   0       1.807  10.308  45.702  1.00  0.00    -0.000 A 
HETATM   34  C   UNK A   0       2.925   9.764  46.336  1.00  0.00    -0.000 A 
HETATM   35  C   UNK A   0       4.030   9.368  45.582  1.00  0.00    -0.000 A 
HETATM   36  C   UNK A   0       4.018   9.517  44.196  1.00  0.00    -0.003 A 
ENDBRANCH  21  31
BRANCH  27  37
HETATM   37  C   UNK A   3       5.524  14.522  41.461  1.00  0.00     0.169 C 
BRANCH  37  38
HETATM   38  O   UNK A   3       6.049  14.664  42.769  1.00  0.00    -0.380 OA
HETATM   39  H   UNK A   3       7.003  14.482  42.727  1.00  0.00     0.211 HD
ENDBRANCH  37  38
ENDBRANCH  27  37
BRANCH  13  40
HETATM   40  C   UNK A   1      -1.143  10.287  37.609  1.00  0.00     0.169 C 
BRANCH  40  41
HETATM   41  O   UNK A   1      -2.310  10.985  38.003  1.00  0.00    -0.380 OA
HETATM   42  H   UNK A   1      -3.052  10.359  37.951  1.00  0.00     0.211 HD
ENDBRANCH  40  41
ENDBRANCH  13  40
BRANCH  17  43
HETATM   43  C   UNK A   2       5.345  13.625  36.727  1.00  0.00     0.032 C 
HETATM   44  C   UNK A   2       5.212  15.101  37.061  1.00  0.00     0.003 C 
ENDBRANCH  17  43
TORSDOF 6
ENDMDL
MODEL 5
REMARK VINA RESULT:    -7.504      3.218      5.464
REMARK INTER + INTRA:         -10.869
REMARK INTER:                  -9.819
REMARK INTRA:                  -1.050
REMARK UNBOUND:                -1.172
REMARK  6 active torsions:
REMARK  status: ('A' for Active; 'I' for Inactive)
REMARK    1  A    between atoms: O_5  and  C_15 
REMARK    2  A    between atoms: C_14  and  C_15 
REMARK    3  A    between atoms: C_20  and  C_21 
REMARK    4  A    between atoms: C_26  and  C_29 
REMARK    5  A    between atoms: O_36  and  C_41 
REMARK    6  A    between atoms: C_39  and  C_41 
ROOT
HETATM    1 CL   UNK A   1       5.622  16.390  36.214  1.00  0.00    -0.111 Cl
HETATM    2 CL   UNK A   1       4.138  14.637  33.877  1.00  0.00    -0.112 Cl
HETATM    3  O   UNK A   1       3.090  15.647  37.929  1.00  0.00    -0.270 OA
HETATM    4  O   UNK A   1       4.053  10.327  36.630  1.00  0.00    -0.270 OA
HETATM    5  N   UNK A   1       4.506  12.585  36.572  1.00  0.00    -0.310 N 
HETATM    6  N   UNK A   1       2.358  10.723  38.734  1.00  0.00    -0.337 N 
HETATM    7  C   UNK A   1       4.605  13.939  37.147  1.00  0.00     0.179 C 
HETATM    8  C   UNK A   1       5.637  14.621  36.233  1.00  0.00     0.126 C 
HETATM    9  C   UNK A   1       5.460  13.954  34.863  1.00  0.00     0.120 C 
HETATM   10  C   UNK A   1       5.135  12.515  35.253  1.00  0.00     0.122 C 
HETATM   11  C   UNK A   1       3.238  14.639  37.235  1.00  0.00     0.252 C 
HETATM   12  C   UNK A   1       4.041  11.430  37.188  1.00  0.00     0.257 C 
HETATM   13  C   UNK A   1       3.545  11.561  38.625  1.00  0.00     0.189 C 
HETATM   14  H   UNK A   1       2.439   9.746  38.465  1.00  0.00     0.164 HD
HETATM   15  O   UNK A   2       0.403  12.421  35.427  1.00  0.00    -0.271 OA
HETATM   16  N   UNK A   2       2.245  14.085  36.450  1.00  0.00    -0.337 N 
HETATM   17  C   UNK A   2       0.876  14.575  36.422  1.00  0.00     0.159 C 
HETATM   18  C   UNK A   2      -0.012  13.393  36.055  1.00  0.00     0.251 C 
HETATM   19  H   UNK A   2       2.481  13.298  35.854  1.00  0.00     0.164 HD
HETATM   20  O   UNK A   0       0.900  12.367  39.487  1.00  0.00    -0.272 OA
HETATM   21  C   UNK A   0      -1.358  10.654  39.441  1.00  0.00     0.112 C 
HETATM   22  C   UNK A   0       0.054  10.124  39.118  1.00  0.00     0.114 C 
HETATM   23  C   UNK A   0       1.122  11.211  39.139  1.00  0.00     0.233 C 
HETATM   24  O   UNK A   3      -2.120  10.205  36.624  1.00  0.00    -0.270 OA
HETATM   25  N   UNK A   3      -1.319  13.561  36.495  1.00  0.00    -0.336 N 
HETATM   26  N   UNK A   3      -1.798  11.626  38.434  1.00  0.00    -0.341 N 
HETATM   27  C   UNK A   3      -2.386  12.586  36.287  1.00  0.00     0.189 C 
HETATM   28  C   UNK A   3      -2.061  11.335  37.101  1.00  0.00     0.253 C 
HETATM   29  H   UNK A   3      -1.564  14.416  36.985  1.00  0.00     0.164 HD
HETATM   30  H   UNK A   3      -1.831  12.599  38.725  1.00  0.00     0.163 HD
ENDROOT
BRANCH  21  31
HETATM   31  C   UNK A   0      -2.419   9.599  39.699  1.00  0.00    -0.002 A 
HETATM   32  C   UNK A   0      -3.713   9.983  40.054  1.00  0.00    -0.003 A 
HETATM   33  C   UNK A   0      -4.688   9.015  40.290  1.00  0.00    -0.000 A 
HETATM   34  C   UNK A   0      -4.370   7.661  40.173  1.00  0.00    -0.000 A 
HETATM   35  C   UNK A   0      -3.076   7.277  39.818  1.00  0.00    -0.000 A 
HETATM   36  C   UNK A   0      -2.102   8.246  39.582  1.00  0.00    -0.003 A 
ENDBRANCH  21  31
BRANCH  27  37
HETATM   37  C   UNK A   3      -2.653  12.298  34.816  1.00  0.00     0.169 C 
BRANCH  37  38
HETATM   38  O   UNK A   3      -3.789  11.456  34.717  1.00  0.00    -0.380 OA
HETATM   39  H   UNK A   3      -3.957  11.293  33.774  1.00  0.00     0.211 HD
ENDBRANCH  37  38
ENDBRANCH  27  37
BRANCH  13  40
HETATM   40  C   UNK A   1       4.624  11.094  39.592  1.00  0.00     0.169 C 
BRANCH  40  41
HETATM   41  O   UNK A   1       4.896   9.726  39.346  1.00  0.00    -0.380 OA
HETATM   42  H   UNK A   1       4.374   9.210  39.982  1.00  0.00     0.211 HD
ENDBRANCH  40  41
ENDBRANCH  13  40
BRANCH  17  43
HETATM   43  C   UNK A   2       0.708  15.701  35.414  1.00  0.00     0.032 C 
HETATM   44  C   UNK A   2       0.644  15.173  33.991  1.00  0.00     0.003 C 
ENDBRANCH  17  43
TORSDOF 6
ENDMDL
MODEL 6
REMARK VINA RESULT:    -7.407     42.684     46.208
REMARK INTER + INTRA:         -10.744
REMARK INTER:                  -9.686
REMARK INTRA:                  -1.057
REMARK UNBOUND:                -1.172
REMARK  6 active torsions:
REMARK  status: ('A' for Active; 'I' for Inactive)
REMARK    1  A    between atoms: O_5  and  C_15 
REMARK    2  A    between atoms: C_14  and  C_15 
REMARK    3  A    between atoms: C_20  and  C_21 
REMARK    4  A    between atoms: C_26  and  C_29 
REMARK    5  A    between atoms: O_36  and  C_41 
REMARK    6  A    between atoms: C_39  and  C_41 
ROOT
HETATM    1 CL   UNK A   1     -24.313 -14.082   7.071  1.00  0.00    -0.111 Cl
HETATM    2 CL   UNK A   1     -22.221 -16.576   7.444  1.00  0.00    -0.112 Cl
HETATM    3  O   UNK A   1     -21.905 -12.331   8.088  1.00  0.00    -0.270 OA
HETATM    4  O   UNK A   1     -18.802 -14.703   4.131  1.00  0.00    -0.270 OA
HETATM    5  N   UNK A   1     -20.757 -14.366   5.303  1.00  0.00    -0.310 N 
HETATM    6  N   UNK A   1     -17.760 -12.425   5.217  1.00  0.00    -0.337 N 
HETATM    7  C   UNK A   1     -21.761 -13.553   6.012  1.00  0.00     0.179 C 
HETATM    8  C   UNK A   1     -23.036 -14.404   5.889  1.00  0.00     0.126 C 
HETATM    9  C   UNK A   1     -22.544 -15.856   5.843  1.00  0.00     0.120 C 
HETATM   10  C   UNK A   1     -21.245 -15.723   5.054  1.00  0.00     0.122 C 
HETATM   11  C   UNK A   1     -21.331 -13.215   7.450  1.00  0.00     0.252 C 
HETATM   12  C   UNK A   1     -19.549 -13.945   4.759  1.00  0.00     0.257 C 
HETATM   13  C   UNK A   1     -19.188 -12.472   4.928  1.00  0.00     0.189 C 
HETATM   14  H   UNK A   1     -17.128 -12.882   4.566  1.00  0.00     0.164 HD
HETATM   15  O   UNK A   2     -17.935 -15.165   8.396  1.00  0.00    -0.271 OA
HETATM   16  N   UNK A   2     -20.316 -14.003   7.958  1.00  0.00    -0.337 N 
HETATM   17  C   UNK A   2     -19.741 -13.820   9.280  1.00  0.00     0.159 C 
HETATM   18  C   UNK A   2     -18.306 -14.328   9.217  1.00  0.00     0.251 C 
HETATM   19  H   UNK A   2     -19.954 -14.757   7.382  1.00  0.00     0.164 HD
HETATM   20  O   UNK A   0     -17.899 -11.248   7.216  1.00  0.00    -0.272 OA
HETATM   21  C   UNK A   0     -15.119 -11.427   7.734  1.00  0.00     0.112 C 
HETATM   22  C   UNK A   0     -15.722 -11.966   6.422  1.00  0.00     0.114 C 
HETATM   23  C   UNK A   0     -17.239 -11.829   6.358  1.00  0.00     0.233 C 
HETATM   24  O   UNK A   3     -14.505 -14.202   8.536  1.00  0.00    -0.270 OA
HETATM   25  N   UNK A   3     -17.500 -13.754  10.192  1.00  0.00    -0.336 N 
HETATM   26  N   UNK A   3     -15.608 -12.187   8.890  1.00  0.00    -0.341 N 
HETATM   27  C   UNK A   3     -16.082 -14.052  10.364  1.00  0.00     0.189 C 
HETATM   28  C   UNK A   3     -15.327 -13.524   9.146  1.00  0.00     0.253 C 
HETATM   29  H   UNK A   3     -17.915 -13.090  10.839  1.00  0.00     0.164 HD
HETATM   30  H   UNK A   3     -16.268 -11.714   9.499  1.00  0.00     0.163 HD
ENDROOT
BRANCH  21  31
HETATM   31  C   UNK A   0     -13.606 -11.286   7.759  1.00  0.00    -0.002 A 
HETATM   32  C   UNK A   0     -12.841 -11.788   6.706  1.00  0.00    -0.003 A 
HETATM   33  C   UNK A   0     -11.454 -11.658   6.728  1.00  0.00    -0.000 A 
HETATM   34  C   UNK A   0     -10.829 -11.027   7.804  1.00  0.00    -0.000 A 
HETATM   35  C   UNK A   0     -11.594 -10.524   8.857  1.00  0.00    -0.000 A 
HETATM   36  C   UNK A   0     -12.982 -10.654   8.834  1.00  0.00    -0.003 A 
ENDBRANCH  21  31
BRANCH  27  37
HETATM   37  C   UNK A   3     -15.812 -15.523  10.653  1.00  0.00     0.169 C 
BRANCH  37  38
HETATM   38  O   UNK A   3     -16.455 -15.873  11.865  1.00  0.00    -0.380 OA
HETATM   39  H   UNK A   3     -15.806 -16.330  12.426  1.00  0.00     0.211 HD
ENDBRANCH  37  38
ENDBRANCH  27  37
BRANCH  13  40
HETATM   40  C   UNK A   1     -19.504 -11.709   3.650  1.00  0.00     0.169 C 
BRANCH  40  41
HETATM   41  O   UNK A   1     -19.137 -12.508   2.540  1.00  0.00    -0.380 OA
HETATM   42  H   UNK A   1     -19.472 -12.064   1.742  1.00  0.00     0.211 HD
ENDBRANCH  40  41
ENDBRANCH  13  40
BRANCH  17  43
HETATM   43  C   UNK A   2     -20.528 -14.574  10.340  1.00  0.00     0.032 C 
HETATM   44  C   UNK A   2     -20.963 -13.658  11.471  1.00  0.00     0.003 C 
ENDBRANCH  17  43
TORSDOF 6
ENDMDL
MODEL 7
REMARK VINA RESULT:    -7.379     24.347     28.458
REMARK INTER + INTRA:         -10.708
REMARK INTER:                  -9.915
REMARK INTRA:                  -0.793
REMARK UNBOUND:                -1.172
REMARK  6 active torsions:
REMARK  status: ('A' for Active; 'I' for Inactive)
REMARK    1  A    between atoms: O_5  and  C_15 
REMARK    2  A    between atoms: C_14  and  C_15 
REMARK    3  A    between atoms: C_20  and  C_21 
REMARK    4  A    between atoms: C_26  and  C_29 
REMARK    5  A    between atoms: O_36  and  C_41 
REMARK    6  A    between atoms: C_39  and  C_41 
ROOT
HETATM    1 CL   UNK A   1       0.737   1.606  62.661  1.00  0.00    -0.111 Cl
HETATM    2 CL   UNK A   1      -1.827   0.237  64.172  1.00  0.00    -0.112 Cl
HETATM    3  O   UNK A   1       1.452  -1.358  61.884  1.00  0.00    -0.270 OA
HETATM    4  O   UNK A   1      -3.719  -1.848  59.902  1.00  0.00    -0.270 OA
HETATM    5  N   UNK A   1      -1.986  -0.705  60.902  1.00  0.00    -0.310 N 
HETATM    6  N   UNK A   1      -1.969  -3.775  59.077  1.00  0.00    -0.337 N 
HETATM    7  C   UNK A   1      -0.575  -0.321  61.087  1.00  0.00     0.179 C 
HETATM    8  C   UNK A   1      -0.684   1.057  61.760  1.00  0.00     0.126 C 
HETATM    9  C   UNK A   1      -1.986   1.006  62.569  1.00  0.00     0.120 C 
HETATM   10  C   UNK A   1      -2.883   0.162  61.669  1.00  0.00     0.122 C 
HETATM   11  C   UNK A   1       0.220  -1.378  61.872  1.00  0.00     0.252 C 
HETATM   12  C   UNK A   1      -2.506  -1.641  60.017  1.00  0.00     0.257 C 
HETATM   13  C   UNK A   1      -1.510  -2.393  59.138  1.00  0.00     0.189 C 
HETATM   14  H   UNK A   1      -2.924  -3.945  58.772  1.00  0.00     0.164 HD
HETATM   15  O   UNK A   2      -2.239  -4.260  63.240  1.00  0.00    -0.271 OA
HETATM   16  N   UNK A   2      -0.548  -2.281  62.581  1.00  0.00    -0.337 N 
HETATM   17  C   UNK A   2       0.011  -3.379  63.354  1.00  0.00     0.159 C 
HETATM   18  C   UNK A   2      -1.039  -4.483  63.384  1.00  0.00     0.251 C 
HETATM   19  H   UNK A   2      -1.558  -2.173  62.570  1.00  0.00     0.164 HD
HETATM   20  O   UNK A   0      -0.017  -4.773  59.844  1.00  0.00    -0.272 OA
HETATM   21  C   UNK A   0      -1.132  -7.378  59.865  1.00  0.00     0.112 C 
HETATM   22  C   UNK A   0      -1.931  -6.172  59.331  1.00  0.00     0.114 C 
HETATM   23  C   UNK A   0      -1.180  -4.852  59.459  1.00  0.00     0.233 C 
HETATM   24  O   UNK A   3      -3.013  -7.560  62.135  1.00  0.00    -0.270 OA
HETATM   25  N   UNK A   3      -0.479  -5.735  63.607  1.00  0.00    -0.336 N 
HETATM   26  N   UNK A   3      -0.867  -7.240  61.301  1.00  0.00    -0.341 N 
HETATM   27  C   UNK A   3      -1.247  -6.974  63.681  1.00  0.00     0.189 C 
HETATM   28  C   UNK A   3      -1.833  -7.261  62.300  1.00  0.00     0.253 C 
HETATM   29  H   UNK A   3       0.525  -5.805  63.738  1.00  0.00     0.164 HD
HETATM   30  H   UNK A   3       0.090  -7.032  61.569  1.00  0.00     0.163 HD
ENDROOT
BRANCH  21  31
HETATM   31  C   UNK A   0      -1.698  -8.748  59.531  1.00  0.00    -0.002 A 
HETATM   32  C   UNK A   0      -2.810  -8.858  58.696  1.00  0.00    -0.003 A 
HETATM   33  C   UNK A   0      -3.330 -10.115  58.388  1.00  0.00    -0.000 A 
HETATM   34  C   UNK A   0      -2.738 -11.263  58.917  1.00  0.00    -0.000 A 
HETATM   35  C   UNK A   0      -1.626 -11.152  59.752  1.00  0.00    -0.000 A 
HETATM   36  C   UNK A   0      -1.107  -9.895  60.059  1.00  0.00    -0.003 A 
ENDBRANCH  21  31
BRANCH  27  37
HETATM   37  C   UNK A   3      -2.289  -6.966  64.791  1.00  0.00     0.169 C 
BRANCH  37  38
HETATM   38  O   UNK A   3      -3.495  -6.428  64.278  1.00  0.00    -0.380 OA
HETATM   39  H   UNK A   3      -3.696  -5.619  64.777  1.00  0.00     0.211 HD
ENDBRANCH  37  38
ENDBRANCH  27  37
BRANCH  13  40
HETATM   40  C   UNK A   1      -1.473  -1.775  57.748  1.00  0.00     0.169 C 
BRANCH  40  41
HETATM   41  O   UNK A   1      -1.529  -2.814  56.786  1.00  0.00    -0.380 OA
HETATM   42  H   UNK A   1      -0.872  -3.482  57.046  1.00  0.00     0.211 HD
ENDBRANCH  40  41
ENDBRANCH  13  40
BRANCH  17  43
HETATM   43  C   UNK A   2       0.365  -2.941  64.767  1.00  0.00     0.032 C 
HETATM   44  C   UNK A   2       1.860  -3.027  65.020  1.00  0.00     0.003 C 
ENDBRANCH  17  43
TORSDOF 6
ENDMDL
MODEL 8
REMARK VINA RESULT:    -7.206     18.808     23.030
REMARK INTER + INTRA:         -10.484
REMARK INTER:                  -9.422
REMARK INTRA:                  -1.063
REMARK UNBOUND:                -1.172
REMARK  6 active torsions:
REMARK  status: ('A' for Active; 'I' for Inactive)
REMARK    1  A    between atoms: O_5  and  C_15 
REMARK    2  A    between atoms: C_14  and  C_15 
REMARK    3  A    between atoms: C_20  and  C_21 
REMARK    4  A    between atoms: C_26  and  C_29 
REMARK    5  A    between atoms: O_36  and  C_41 
REMARK    6  A    between atoms: C_39  and  C_41 
ROOT
HETATM    1 CL   UNK A   1       2.626  -5.796  35.923  1.00  0.00    -0.111 Cl
HETATM    2 CL   UNK A   1       0.237  -5.565  38.153  1.00  0.00    -0.112 Cl
HETATM    3  O   UNK A   1       1.074  -8.373  34.999  1.00  0.00    -0.270 OA
HETATM    4  O   UNK A   1      -3.499  -5.228  34.674  1.00  0.00    -0.270 OA
HETATM    5  N   UNK A   1      -1.262  -5.589  35.092  1.00  0.00    -0.310 N 
HETATM    6  N   UNK A   1      -3.643  -7.628  33.380  1.00  0.00    -0.337 N 
HETATM    7  C   UNK A   1       0.060  -6.189  34.839  1.00  0.00     0.179 C 
HETATM    8  C   UNK A   1       1.020  -5.185  35.499  1.00  0.00     0.126 C 
HETATM    9  C   UNK A   1       0.227  -4.580  36.664  1.00  0.00     0.120 C 
HETATM   10  C   UNK A   1      -1.183  -4.516  36.085  1.00  0.00     0.122 C 
HETATM   11  C   UNK A   1       0.157  -7.633  35.360  1.00  0.00     0.252 C 
HETATM   12  C   UNK A   1      -2.452  -5.830  34.415  1.00  0.00     0.257 C 
HETATM   13  C   UNK A   1      -2.411  -6.855  33.285  1.00  0.00     0.189 C 
HETATM   14  H   UNK A   1      -4.523  -7.120  33.379  1.00  0.00     0.164 HD
HETATM   15  O   UNK A   2      -3.156  -8.605  37.436  1.00  0.00    -0.271 OA
HETATM   16  N   UNK A   2      -0.813  -7.991  36.277  1.00  0.00    -0.337 N 
HETATM   17  C   UNK A   2      -0.919  -9.321  36.857  1.00  0.00     0.159 C 
HETATM   18  C   UNK A   2      -2.384  -9.536  37.214  1.00  0.00     0.251 C 
HETATM   19  H   UNK A   2      -1.486  -7.290  36.569  1.00  0.00     0.164 HD
HETATM   20  O   UNK A   0      -2.666  -9.730  33.533  1.00  0.00    -0.272 OA
HETATM   21  C   UNK A   0      -5.139 -11.060  33.918  1.00  0.00     0.112 C 
HETATM   22  C   UNK A   0      -5.083  -9.545  33.637  1.00  0.00     0.114 C 
HETATM   23  C   UNK A   0      -3.661  -9.010  33.518  1.00  0.00     0.233 C 
HETATM   24  O   UNK A   3      -6.091 -10.471  36.651  1.00  0.00    -0.270 OA
HETATM   25  N   UNK A   3      -2.719 -10.883  37.271  1.00  0.00    -0.336 N 
HETATM   26  N   UNK A   3      -4.514 -11.381  35.205  1.00  0.00    -0.341 N 
HETATM   27  C   UNK A   3      -4.054 -11.383  37.586  1.00  0.00     0.189 C 
HETATM   28  C   UNK A   3      -4.996 -10.992  36.449  1.00  0.00     0.253 C 
HETATM   29  H   UNK A   3      -1.997 -11.574  37.094  1.00  0.00     0.164 HD
HETATM   30  H   UNK A   3      -3.616 -11.854  35.170  1.00  0.00     0.163 HD
ENDROOT
BRANCH  21  31
HETATM   31  C   UNK A   0      -6.507 -11.709  33.785  1.00  0.00    -0.002 A 
HETATM   32  C   UNK A   0      -7.633 -10.918  33.553  1.00  0.00    -0.003 A 
HETATM   33  C   UNK A   0      -8.888 -11.512  33.430  1.00  0.00    -0.000 A 
HETATM   34  C   UNK A   0      -9.018 -12.897  33.540  1.00  0.00    -0.000 A 
HETATM   35  C   UNK A   0      -7.892 -13.687  33.772  1.00  0.00    -0.000 A 
HETATM   36  C   UNK A   0      -6.637 -13.092  33.894  1.00  0.00    -0.003 A 
ENDBRANCH  21  31
BRANCH  27  37
HETATM   37  C   UNK A   3      -4.547 -10.945  38.959  1.00  0.00     0.169 C 
BRANCH  37  38
HETATM   38  O   UNK A   3      -4.058 -11.856  39.928  1.00  0.00    -0.380 OA
HETATM   39  H   UNK A   3      -4.730 -11.936  40.626  1.00  0.00     0.211 HD
ENDBRANCH  37  38
ENDBRANCH  27  37
BRANCH  13  40
HETATM   40  C   UNK A   1      -2.322  -6.145  31.942  1.00  0.00     0.169 C 
BRANCH  40  41
HETATM   41  O   UNK A   1      -3.556  -5.496  31.688  1.00  0.00    -0.380 OA
HETATM   42  H   UNK A   1      -3.362  -4.555  31.546  1.00  0.00     0.211 HD
ENDBRANCH  40  41
ENDBRANCH  13  40
BRANCH  17  43
HETATM   43  C   UNK A   2      -0.043  -9.461  38.092  1.00  0.00     0.032 C 
HETATM   44  C   UNK A   2       1.099 -10.435  37.860  1.00  0.00     0.003 C 
ENDBRANCH  17  43
TORSDOF 6
ENDMDL
MODEL 9
REMARK VINA RESULT:    -7.184     51.171     55.069
REMARK INTER + INTRA:         -10.455
REMARK INTER:                  -9.283
REMARK INTRA:                  -1.172
REMARK UNBOUND:                -1.172
REMARK  6 active torsions:
REMARK  status: ('A' for Active; 'I' for Inactive)
REMARK    1  A    between atoms: O_5  and  C_15 
REMARK    2  A    between atoms: C_14  and  C_15 
REMARK    3  A    between atoms: C_20  and  C_21 
REMARK    4  A    between atoms: C_26  and  C_29 
REMARK    5  A    between atoms: O_36  and  C_41 
REMARK    6  A    between atoms: C_39  and  C_41 
ROOT
HETATM    1 CL   UNK A   1       9.266  13.240 -20.537  1.00  0.00    -0.111 Cl
HETATM    2 CL   UNK A   1       8.751  14.615 -17.609  1.00  0.00    -0.112 Cl
HETATM    3  O   UNK A   1      11.181  11.320 -18.939  1.00  0.00    -0.270 OA
HETATM    4  O   UNK A   1       6.936  10.328 -15.488  1.00  0.00    -0.270 OA
HETATM    5  N   UNK A   1       7.929  11.322 -17.315  1.00  0.00    -0.310 N 
HETATM    6  N   UNK A   1       8.996   8.541 -15.344  1.00  0.00    -0.337 N 
HETATM    7  C   UNK A   1       8.809  11.359 -18.496  1.00  0.00     0.179 C 
HETATM    8  C   UNK A   1       8.201  12.493 -19.338  1.00  0.00     0.126 C 
HETATM    9  C   UNK A   1       7.588  13.462 -18.319  1.00  0.00     0.120 C 
HETATM   10  C   UNK A   1       7.073  12.507 -17.247  1.00  0.00     0.122 C 
HETATM   11  C   UNK A   1      10.289  11.540 -18.118  1.00  0.00     0.252 C 
HETATM   12  C   UNK A   1       7.747  10.275 -16.420  1.00  0.00     0.257 C 
HETATM   13  C   UNK A   1       8.568   9.010 -16.656  1.00  0.00     0.189 C 
HETATM   14  H   UNK A   1       8.281   8.385 -14.639  1.00  0.00     0.164 HD
HETATM   15  O   UNK A   2      10.656  12.215 -14.163  1.00  0.00    -0.271 OA
HETATM   16  N   UNK A   2      10.512  12.006 -16.837  1.00  0.00    -0.337 N 
HETATM   17  C   UNK A   2      11.838  12.206 -16.274  1.00  0.00     0.159 C 
HETATM   18  C   UNK A   2      11.713  12.035 -14.765  1.00  0.00     0.251 C 
HETATM   19  H   UNK A   2       9.710  12.229 -16.255  1.00  0.00     0.164 HD
HETATM   20  O   UNK A   0      11.279   8.505 -15.771  1.00  0.00    -0.272 OA
HETATM   21  C   UNK A   0      11.958   7.794 -13.112  1.00  0.00     0.112 C 
HETATM   22  C   UNK A   0      10.486   7.898 -13.560  1.00  0.00     0.114 C 
HETATM   23  C   UNK A   0      10.330   8.348 -15.008  1.00  0.00     0.233 C 
HETATM   24  O   UNK A   3      11.551  10.159 -11.391  1.00  0.00    -0.270 OA
HETATM   25  N   UNK A   3      12.919  11.677 -14.174  1.00  0.00    -0.336 N 
HETATM   26  N   UNK A   3      12.618   9.103 -13.166  1.00  0.00    -0.341 N 
HETATM   27  C   UNK A   3      13.093  11.443 -12.744  1.00  0.00     0.189 C 
HETATM   28  C   UNK A   3      12.304  10.191 -12.361  1.00  0.00     0.253 C 
HETATM   29  H   UNK A   3      13.741  11.579 -14.762  1.00  0.00     0.164 HD
HETATM   30  H   UNK A   3      13.299   9.239 -13.907  1.00  0.00     0.163 HD
ENDROOT
BRANCH  21  31
HETATM   31  C   UNK A   0      12.198   7.102 -11.781  1.00  0.00    -0.002 A 
HETATM   32  C   UNK A   0      13.502   6.853 -11.351  1.00  0.00    -0.003 A 
HETATM   33  C   UNK A   0      13.723   6.218 -10.129  1.00  0.00    -0.000 A 
HETATM   34  C   UNK A   0      12.641   5.832  -9.338  1.00  0.00    -0.000 A 
HETATM   35  C   UNK A   0      11.338   6.082  -9.768  1.00  0.00    -0.000 A 
HETATM   36  C   UNK A   0      11.117   6.716 -10.990  1.00  0.00    -0.003 A 
ENDBRANCH  21  31
BRANCH  27  37
HETATM   37  C   UNK A   3      12.750  12.658 -11.893  1.00  0.00     0.169 C 
BRANCH  37  38
HETATM   38  O   UNK A   3      12.927  12.322 -10.529  1.00  0.00    -0.380 OA
HETATM   39  H   UNK A   3      13.821  11.954 -10.427  1.00  0.00     0.211 HD
ENDBRANCH  37  38
ENDBRANCH  27  37
BRANCH  13  40
HETATM   40  C   UNK A   1       7.715   7.959 -17.351  1.00  0.00     0.169 C 
BRANCH  40  41
HETATM   41  O   UNK A   1       6.348   8.282 -17.161  1.00  0.00    -0.380 OA
HETATM   42  H   UNK A   1       6.015   8.629 -18.005  1.00  0.00     0.211 HD
ENDBRANCH  40  41
ENDBRANCH  13  40
BRANCH  17  43
HETATM   43  C   UNK A   2      12.384  13.585 -16.611  1.00  0.00     0.032 C 
HETATM   44  C   UNK A   2      13.483  13.511 -17.657  1.00  0.00     0.003 C 
ENDBRANCH  17  43
TORSDOF 6
ENDMDL
