MODEL 1
REMARK VINA RESULT:    -8.741      0.000      0.000
REMARK INTER + INTRA:          -9.799
REMARK INTER:                 -10.886
REMARK INTRA:                   1.087
REMARK UNBOUND:                 2.519
REMARK  7 active torsions:
REMARK  status: ('A' for Active; 'I' for Inactive)
REMARK    1  A    between atoms: C_13  and  C_14 
REMARK    2  A    between atoms: C_14  and  C_19 
REMARK    3  A    between atoms: C_15  and  C_20 
REMARK    4  A    between atoms: C_16  and  C_21 
REMARK    5  A    between atoms: C_17  and  C_23 
REMARK    6  A    between atoms: C_18  and  C_26 
REMARK    7  A    between atoms: C_22  and  C_28 
ROOT
HETATM    1  O   UNL     1      10.699   1.445  10.326  1.00  0.00    -0.304 OA
HETATM    2  O   UNL     1      10.040   0.293   5.273  1.00  0.00    -0.304 OA
HETATM    3  O   UNL     1       6.181   0.475   7.996  1.00  0.00    -0.304 OA
HETATM    4  O   UNL     1      11.774  -0.649   7.785  1.00  0.00    -0.270 OA
HETATM    5  O   UNL     1       9.959   2.890   8.688  1.00  0.00    -0.263 OA
HETATM    6  O   UNL     1       9.339  -0.577   9.441  1.00  0.00    -0.270 OA
HETATM    7  O   UNL     1       6.028  -0.469   4.899  1.00  0.00    -0.270 OA
HETATM    8  O   UNL     1      10.368   0.418   3.002  1.00  0.00    -0.263 OA
HETATM    9  O   UNL     1       5.704  -1.735   7.560  1.00  0.00    -0.263 OA
HETATM   10  N   UNL     1      11.985   1.582   7.183  1.00  0.00    -0.340 N 
HETATM   11  N   UNL     1       7.291   0.020  10.336  1.00  0.00    -0.340 N 
HETATM   12  N   UNL     1       7.544   1.270   5.195  1.00  0.00    -0.340 N 
HETATM   13  C   UNL     1      12.209   1.968   8.591  1.00  0.00     0.190 C 
HETATM   14  C   UNL     1       6.651  -1.151   9.700  1.00  0.00     0.190 C 
HETATM   15  C   UNL     1       8.207   1.022   3.898  1.00  0.00     0.190 C 
HETATM   16  C   UNL     1      11.393  -0.159   5.474  1.00  0.00     0.227 C 
HETATM   17  C   UNL     1       9.373   1.329  10.887  1.00  0.00     0.227 C 
HETATM   18  C   UNL     1       5.617   0.977   6.771  1.00  0.00     0.227 C 
HETATM   19  C   UNL     1      11.735   0.225   6.911  1.00  0.00     0.250 C 
HETATM   20  C   UNL     1      10.827   2.185   9.186  1.00  0.00     0.283 C 
HETATM   21  C   UNL     1       8.673   0.180  10.156  1.00  0.00     0.250 C 
HETATM   22  C   UNL     1       6.412   0.513   5.542  1.00  0.00     0.250 C 
HETATM   23  C   UNL     1       9.658   0.560   3.993  1.00  0.00     0.283 C 
HETATM   24  C   UNL     1       6.138  -0.852   8.293  1.00  0.00     0.283 C 
HETATM   25  C   UNL     1      12.001   2.643   6.171  1.00  0.00     0.153 C 
HETATM   26  C   UNL     1       6.436   0.950  11.078  1.00  0.00     0.153 C 
HETATM   27  C   UNL     1       7.997   2.422   5.977  1.00  0.00     0.153 C 
ENDROOT
BRANCH  17  28
HETATM   28  C   UNL     1       9.547   0.999  12.363  1.00  0.00     0.016 C 
HETATM   29  C   UNL     1      11.019   0.753  12.690  1.00  0.00     0.012 C 
HETATM   30  C   UNL     1       8.985   2.121  13.236  1.00  0.00     0.012 C 
ENDBRANCH  17  28
BRANCH  13  31
HETATM   31  C   UNL     1      13.079   3.200   8.816  1.00  0.00     0.014 C 
HETATM   32  C   UNL     1      12.961   3.661  10.270  1.00  0.00     0.012 C 
BRANCH  31  33
HETATM   33  C   UNL     1      14.533   2.896   8.416  1.00  0.00     0.002 C 
HETATM   34  C   UNL     1      15.103   1.650   9.080  1.00  0.00     0.005 C 
ENDBRANCH  31  33
ENDBRANCH  13  31
BRANCH  14  35
HETATM   35  C   UNL     1       5.530  -1.769  10.536  1.00  0.00     0.010 C 
HETATM   36  C   UNL     1       4.165  -1.455   9.926  1.00  0.00     0.012 C 
HETATM   37  C   UNL     1       5.723  -3.279  10.666  1.00  0.00     0.012 C 
ENDBRANCH  14  35
BRANCH  16  38
HETATM   38  C   UNL     1      11.440  -1.671   5.268  1.00  0.00     0.016 C 
HETATM   39  C   UNL     1      11.824  -2.007   3.828  1.00  0.00     0.012 C 
HETATM   40  C   UNL     1      10.097  -2.305   5.625  1.00  0.00     0.012 C 
ENDBRANCH  16  38
BRANCH  18  41
HETATM   41  C   UNL     1       4.125   0.665   6.662  1.00  0.00     0.016 C 
HETATM   42  C   UNL     1       3.597   1.046   5.281  1.00  0.00     0.012 C 
HETATM   43  C   UNL     1       3.344   1.391   7.755  1.00  0.00     0.012 C 
ENDBRANCH  18  41
BRANCH  15  44
HETATM   44  C   UNL     1       8.090   2.235   2.974  1.00  0.00     0.010 C 
HETATM   45  C   UNL     1       6.731   2.909   3.145  1.00  0.00     0.012 C 
HETATM   46  C   UNL     1       8.307   1.822   1.521  1.00  0.00     0.012 C 
ENDBRANCH  15  44
TORSDOF 7
ENDMDL
MODEL 2
REMARK VINA RESULT:    -8.481      1.067      1.217
REMARK INTER + INTRA:          -9.433
REMARK INTER:                 -10.548
REMARK INTRA:                   1.115
REMARK UNBOUND:                 2.519
REMARK  7 active torsions:
REMARK  status: ('A' for Active; 'I' for Inactive)
REMARK    1  A    between atoms: C_13  and  C_14 
REMARK    2  A    between atoms: C_14  and  C_19 
REMARK    3  A    between atoms: C_15  and  C_20 
REMARK    4  A    between atoms: C_16  and  C_21 
REMARK    5  A    between atoms: C_17  and  C_23 
REMARK    6  A    between atoms: C_18  and  C_26 
REMARK    7  A    between atoms: C_22  and  C_28 
ROOT
HETATM    1  O   UNL     1      11.839   0.810   9.954  1.00  0.00    -0.304 OA
HETATM    2  O   UNL     1      10.228   0.318   5.010  1.00  0.00    -0.304 OA
HETATM    3  O   UNL     1       6.992  -0.155   8.422  1.00  0.00    -0.304 OA
HETATM    4  O   UNL     1      12.471  -0.833   6.971  1.00  0.00    -0.270 OA
HETATM    5  O   UNL     1      10.723   2.409   8.724  1.00  0.00    -0.263 OA
HETATM    6  O   UNL     1      10.419  -1.164   9.058  1.00  0.00    -0.270 OA
HETATM    7  O   UNL     1       6.260  -0.673   5.307  1.00  0.00    -0.270 OA
HETATM    8  O   UNL     1      10.087   0.777   2.763  1.00  0.00    -0.263 OA
HETATM    9  O   UNL     1       6.533  -2.312   7.762  1.00  0.00    -0.263 OA
HETATM   10  N   UNL     1      12.459   1.470   6.679  1.00  0.00    -0.340 N 
HETATM   11  N   UNL     1       8.569  -0.844  10.410  1.00  0.00    -0.340 N 
HETATM   12  N   UNL     1       7.728   1.114   5.561  1.00  0.00    -0.340 N 
HETATM   13  C   UNL     1      12.946   1.674   8.059  1.00  0.00     0.190 C 
HETATM   14  C   UNL     1       7.865  -1.960   9.742  1.00  0.00     0.190 C 
HETATM   15  C   UNL     1       8.125   1.095   4.138  1.00  0.00     0.190 C 
HETATM   16  C   UNL     1      11.612  -0.059   4.877  1.00  0.00     0.227 C 
HETATM   17  C   UNL     1      10.660   0.523  10.738  1.00  0.00     0.227 C 
HETATM   18  C   UNL     1       6.172   0.469   7.418  1.00  0.00     0.227 C 
HETATM   19  C   UNL     1      12.219   0.148   6.262  1.00  0.00     0.250 C 
HETATM   20  C   UNL     1      11.704   1.707   8.934  1.00  0.00     0.283 C 
HETATM   21  C   UNL     1       9.878  -0.562   9.993  1.00  0.00     0.250 C 
HETATM   22  C   UNL     1       6.722   0.237   6.003  1.00  0.00     0.250 C 
HETATM   23  C   UNL     1       9.585   0.730   3.882  1.00  0.00     0.283 C 
HETATM   24  C   UNL     1       7.067  -1.509   8.521  1.00  0.00     0.283 C 
HETATM   25  C   UNL     1      12.226   2.658   5.852  1.00  0.00     0.153 C 
HETATM   26  C   UNL     1       7.841  -0.089  11.432  1.00  0.00     0.153 C 
HETATM   27  C   UNL     1       8.278   2.177   6.404  1.00  0.00     0.153 C 
ENDROOT
BRANCH  17  28
HETATM   28  C   UNL     1      11.142   0.007  12.086  1.00  0.00     0.016 C 
HETATM   29  C   UNL     1      12.590  -0.472  11.995  1.00  0.00     0.012 C 
HETATM   30  C   UNL     1      11.003   1.088  13.158  1.00  0.00     0.012 C 
ENDBRANCH  17  28
BRANCH  13  31
HETATM   31  C   UNL     1      13.788   2.922   8.292  1.00  0.00     0.014 C 
HETATM   32  C   UNL     1      13.644   3.382   9.744  1.00  0.00     0.012 C 
BRANCH  31  33
HETATM   33  C   UNL     1      15.253   2.646   7.911  1.00  0.00     0.002 C 
HETATM   34  C   UNL     1      16.263   3.283   8.855  1.00  0.00     0.005 C 
ENDBRANCH  31  33
ENDBRANCH  13  31
BRANCH  14  35
HETATM   35  C   UNL     1       6.963  -2.766  10.677  1.00  0.00     0.010 C 
HETATM   36  C   UNL     1       5.495  -2.591  10.295  1.00  0.00     0.012 C 
HETATM   37  C   UNL     1       7.348  -4.245  10.657  1.00  0.00     0.012 C 
ENDBRANCH  14  35
BRANCH  16  38
HETATM   38  C   UNL     1      11.682  -1.521   4.443  1.00  0.00     0.016 C 
HETATM   39  C   UNL     1      11.845  -1.627   2.927  1.00  0.00     0.012 C 
HETATM   40  C   UNL     1      10.438  -2.279   4.901  1.00  0.00     0.012 C 
ENDBRANCH  16  38
BRANCH  18  41
HETATM   41  C   UNL     1       4.703   0.068   7.553  1.00  0.00     0.016 C 
HETATM   42  C   UNL     1       3.827   0.923   6.640  1.00  0.00     0.012 C 
HETATM   43  C   UNL     1       4.246   0.191   9.005  1.00  0.00     0.012 C 
ENDBRANCH  18  41
BRANCH  15  44
HETATM   44  C   UNL     1       7.772   2.411   3.445  1.00  0.00     0.010 C 
HETATM   45  C   UNL     1       6.354   2.843   3.808  1.00  0.00     0.012 C 
HETATM   46  C   UNL     1       7.924   2.275   1.933  1.00  0.00     0.012 C 
ENDBRANCH  15  44
TORSDOF 7
ENDMDL
MODEL 3
REMARK VINA RESULT:    -8.442      2.255      6.351
REMARK INTER + INTRA:          -9.378
REMARK INTER:                 -10.596
REMARK INTRA:                   1.218
REMARK UNBOUND:                 2.519
REMARK  7 active torsions:
REMARK  status: ('A' for Active; 'I' for Inactive)
REMARK    1  A    between atoms: C_13  and  C_14 
REMARK    2  A    between atoms: C_14  and  C_19 
REMARK    3  A    between atoms: C_15  and  C_20 
REMARK    4  A    between atoms: C_16  and  C_21 
REMARK    5  A    between atoms: C_17  and  C_23 
REMARK    6  A    between atoms: C_18  and  C_26 
REMARK    7  A    between atoms: C_22  and  C_28 
ROOT
HETATM    1  O   UNL     1       7.332   0.673   5.286  1.00  0.00    -0.304 OA
HETATM    2  O   UNL     1      11.305   0.383   8.665  1.00  0.00    -0.304 OA
HETATM    3  O   UNL     1       7.453  -2.195   9.592  1.00  0.00    -0.304 OA
HETATM    4  O   UNL     1       9.494   2.575   7.211  1.00  0.00    -0.270 OA
HETATM    5  O   UNL     1       8.865  -1.043   5.437  1.00  0.00    -0.263 OA
HETATM    6  O   UNL     1       7.108   0.970   7.851  1.00  0.00    -0.270 OA
HETATM    7  O   UNL     1       9.927  -2.030  11.681  1.00  0.00    -0.270 OA
HETATM    8  O   UNL     1      13.486   0.263   9.380  1.00  0.00    -0.263 OA
HETATM    9  O   UNL     1       7.120  -1.081  11.578  1.00  0.00    -0.263 OA
HETATM   10  N   UNL     1      10.657   1.130   5.817  1.00  0.00    -0.340 N 
HETATM   11  N   UNL     1       5.678  -0.806   8.239  1.00  0.00    -0.340 N 
HETATM   12  N   UNL     1      10.665  -2.091   9.475  1.00  0.00    -0.340 N 
HETATM   13  C   UNL     1       9.581   1.197   4.807  1.00  0.00     0.190 C 
HETATM   14  C   UNL     1       5.714  -0.543   9.693  1.00  0.00     0.190 C 
HETATM   15  C   UNL     1      12.013  -1.600   9.828  1.00  0.00     0.190 C 
HETATM   16  C   UNL     1      11.529   1.691   8.103  1.00  0.00     0.227 C 
HETATM   17  C   UNL     1       6.298  -0.135   5.890  1.00  0.00     0.227 C 
HETATM   18  C   UNL     1       8.455  -3.091  10.108  1.00  0.00     0.227 C 
HETATM   19  C   UNL     1      10.472   1.846   7.014  1.00  0.00     0.250 C 
HETATM   20  C   UNL     1       8.579   0.124   5.200  1.00  0.00     0.283 C 
HETATM   21  C   UNL     1       6.403   0.058   7.406  1.00  0.00     0.250 C 
HETATM   22  C   UNL     1       9.740  -2.348  10.502  1.00  0.00     0.250 C 
HETATM   23  C   UNL     1      12.367  -0.227   9.262  1.00  0.00     0.283 C 
HETATM   24  C   UNL     1       6.848  -1.284  10.400  1.00  0.00     0.283 C 
HETATM   25  C   UNL     1      11.826   0.296   5.519  1.00  0.00     0.153 C 
HETATM   26  C   UNL     1       4.919  -1.969   7.772  1.00  0.00     0.153 C 
HETATM   27  C   UNL     1      10.422  -2.459   8.080  1.00  0.00     0.153 C 
ENDROOT
BRANCH  17  28
HETATM   28  C   UNL     1       4.968   0.391   5.372  1.00  0.00     0.016 C 
HETATM   29  C   UNL     1       4.343   1.358   6.376  1.00  0.00     0.012 C 
HETATM   30  C   UNL     1       5.148   1.071   4.015  1.00  0.00     0.012 C 
ENDBRANCH  17  28
BRANCH  13  31
HETATM   31  C   UNL     1      10.013   1.008   3.357  1.00  0.00     0.014 C 
HETATM   32  C   UNL     1       8.794   1.090   2.437  1.00  0.00     0.012 C 
BRANCH  31  33
HETATM   33  C   UNL     1      11.091   2.043   2.991  1.00  0.00     0.002 C 
HETATM   34  C   UNL     1      11.514   1.996   1.530  1.00  0.00     0.005 C 
ENDBRANCH  31  33
ENDBRANCH  13  31
BRANCH  14  35
HETATM   35  C   UNL     1       4.391  -0.828  10.404  1.00  0.00     0.010 C 
HETATM   36  C   UNL     1       4.528  -2.029  11.338  1.00  0.00     0.012 C 
HETATM   37  C   UNL     1       3.919   0.401  11.179  1.00  0.00     0.012 C 
ENDBRANCH  14  35
BRANCH  16  38
HETATM   38  C   UNL     1      11.361   2.733   9.206  1.00  0.00     0.016 C 
HETATM   39  C   UNL     1      12.713   3.326   9.599  1.00  0.00     0.012 C 
HETATM   40  C   UNL     1      10.670   2.122  10.424  1.00  0.00     0.012 C 
ENDBRANCH  16  38
BRANCH  18  41
HETATM   41  C   UNL     1       7.908  -3.965  11.236  1.00  0.00     0.016 C 
HETATM   42  C   UNL     1       9.004  -4.871  11.791  1.00  0.00     0.012 C 
HETATM   43  C   UNL     1       6.724  -4.795  10.745  1.00  0.00     0.012 C 
ENDBRANCH  18  41
BRANCH  15  44
HETATM   44  C   UNL     1      13.090  -2.623   9.465  1.00  0.00     0.010 C 
HETATM   45  C   UNL     1      14.051  -2.824  10.633  1.00  0.00     0.012 C 
HETATM   46  C   UNL     1      13.846  -2.182   8.215  1.00  0.00     0.012 C 
ENDBRANCH  15  44
TORSDOF 7
ENDMDL
MODEL 4
REMARK VINA RESULT:    -8.356      2.115      4.473
REMARK INTER + INTRA:          -9.257
REMARK INTER:                  -9.853
REMARK INTRA:                   0.596
REMARK UNBOUND:                 2.519
REMARK  7 active torsions:
REMARK  status: ('A' for Active; 'I' for Inactive)
REMARK    1  A    between atoms: C_13  and  C_14 
REMARK    2  A    between atoms: C_14  and  C_19 
REMARK    3  A    between atoms: C_15  and  C_20 
REMARK    4  A    between atoms: C_16  and  C_21 
REMARK    5  A    between atoms: C_17  and  C_23 
REMARK    6  A    between atoms: C_18  and  C_26 
REMARK    7  A    between atoms: C_22  and  C_28 
ROOT
HETATM    1  O   UNL     1       7.590  -0.124  11.954  1.00  0.00    -0.304 OA
HETATM    2  O   UNL     1      11.628  -0.027   8.640  1.00  0.00    -0.304 OA
HETATM    3  O   UNL     1       7.278   0.044   6.791  1.00  0.00    -0.304 OA
HETATM    4  O   UNL     1      10.549  -1.721  11.124  1.00  0.00    -0.270 OA
HETATM    5  O   UNL     1       8.398   1.733  10.851  1.00  0.00    -0.263 OA
HETATM    6  O   UNL     1       7.862  -1.704   9.917  1.00  0.00    -0.270 OA
HETATM    7  O   UNL     1       9.915  -0.159   4.917  1.00  0.00    -0.270 OA
HETATM    8  O   UNL     1      13.693   0.557   7.821  1.00  0.00    -0.263 OA
HETATM    9  O   UNL     1       7.663  -1.932   5.675  1.00  0.00    -0.263 OA
HETATM   10  N   UNL     1      10.893   0.541  11.509  1.00  0.00    -0.340 N 
HETATM   11  N   UNL     1       5.955  -1.060   8.777  1.00  0.00    -0.340 N 
HETATM   12  N   UNL     1      10.254   1.259   6.730  1.00  0.00    -0.340 N 
HETATM   13  C   UNL     1       9.781   0.571  12.481  1.00  0.00     0.190 C 
HETATM   14  C   UNL     1       6.294  -1.967   7.660  1.00  0.00     0.190 C 
HETATM   15  C   UNL     1      11.724   1.222   6.587  1.00  0.00     0.190 C 
HETATM   16  C   UNL     1      12.229  -0.684   9.773  1.00  0.00     0.227 C 
HETATM   17  C   UNL     1       6.432  -0.189  11.093  1.00  0.00     0.227 C 
HETATM   18  C   UNL     1       7.947   0.875   5.826  1.00  0.00     0.227 C 
HETATM   19  C   UNL     1      11.155  -0.677  10.857  1.00  0.00     0.250 C 
HETATM   20  C   UNL     1       8.525   0.829  11.666  1.00  0.00     0.283 C 
HETATM   21  C   UNL     1       6.817  -1.045   9.884  1.00  0.00     0.250 C 
HETATM   22  C   UNL     1       9.457   0.597   5.779  1.00  0.00     0.250 C 
HETATM   23  C   UNL     1      12.468   0.566   7.747  1.00  0.00     0.283 C 
HETATM   24  C   UNL     1       7.169  -1.299   6.601  1.00  0.00     0.283 C 
HETATM   25  C   UNL     1      11.622   1.790  11.263  1.00  0.00     0.153 C 
HETATM   26  C   UNL     1       4.766  -0.216   8.638  1.00  0.00     0.153 C 
HETATM   27  C   UNL     1       9.696   2.138   7.758  1.00  0.00     0.153 C 
ENDROOT
BRANCH  17  28
HETATM   28  C   UNL     1       5.324  -0.858  11.895  1.00  0.00     0.016 C 
HETATM   29  C   UNL     1       5.905  -1.612  13.091  1.00  0.00     0.012 C 
HETATM   30  C   UNL     1       4.296   0.173  12.359  1.00  0.00     0.012 C 
ENDBRANCH  17  28
BRANCH  13  31
HETATM   31  C   UNL     1       9.901   1.599  13.602  1.00  0.00     0.014 C 
HETATM   32  C   UNL     1       8.514   2.123  13.976  1.00  0.00     0.012 C 
BRANCH  31  33
HETATM   33  C   UNL     1      10.636   0.981  14.804  1.00  0.00     0.002 C 
HETATM   34  C   UNL     1      10.520  -0.535  14.880  1.00  0.00     0.005 C 
ENDBRANCH  31  33
ENDBRANCH  13  31
BRANCH  14  35
HETATM   35  C   UNL     1       5.075  -2.604   6.993  1.00  0.00     0.010 C 
HETATM   36  C   UNL     1       4.848  -2.012   5.604  1.00  0.00     0.012 C 
HETATM   37  C   UNL     1       5.238  -4.122   6.907  1.00  0.00     0.012 C 
ENDBRANCH  14  35
BRANCH  16  38
HETATM   38  C   UNL     1      12.612  -2.105   9.367  1.00  0.00     0.016 C 
HETATM   39  C   UNL     1      14.131  -2.267   9.336  1.00  0.00     0.012 C 
HETATM   40  C   UNL     1      12.008  -2.459   8.009  1.00  0.00     0.012 C 
ENDBRANCH  16  38
BRANCH  18  41
HETATM   41  C   UNL     1       7.289   0.791   4.450  1.00  0.00     0.016 C 
HETATM   42  C   UNL     1       8.053   1.641   3.437  1.00  0.00     0.012 C 
HETATM   43  C   UNL     1       5.828   1.231   4.527  1.00  0.00     0.012 C 
ENDBRANCH  18  41
BRANCH  15  44
HETATM   44  C   UNL     1      12.291   2.614   6.307  1.00  0.00     0.010 C 
HETATM   45  C   UNL     1      13.199   2.585   5.080  1.00  0.00     0.012 C 
HETATM   46  C   UNL     1      13.046   3.138   7.524  1.00  0.00     0.012 C 
ENDBRANCH  15  44
TORSDOF 7
ENDMDL
MODEL 5
REMARK VINA RESULT:    -8.296      2.208      7.541
REMARK INTER + INTRA:          -9.171
REMARK INTER:                 -10.146
REMARK INTRA:                   0.975
REMARK UNBOUND:                 2.519
REMARK  7 active torsions:
REMARK  status: ('A' for Active; 'I' for Inactive)
REMARK    1  A    between atoms: C_13  and  C_14 
REMARK    2  A    between atoms: C_14  and  C_19 
REMARK    3  A    between atoms: C_15  and  C_20 
REMARK    4  A    between atoms: C_16  and  C_21 
REMARK    5  A    between atoms: C_17  and  C_23 
REMARK    6  A    between atoms: C_18  and  C_26 
REMARK    7  A    between atoms: C_22  and  C_28 
ROOT
HETATM    1  O   UNL     1       9.245   0.657   5.574  1.00  0.00    -0.304 OA
HETATM    2  O   UNL     1       6.143  -1.825   8.967  1.00  0.00    -0.304 OA
HETATM    3  O   UNL     1      10.464  -0.603  10.442  1.00  0.00    -0.304 OA
HETATM    4  O   UNL     1       7.246  -2.141   5.986  1.00  0.00    -0.270 OA
HETATM    5  O   UNL     1       8.068   1.630   7.302  1.00  0.00    -0.263 OA
HETATM    6  O   UNL     1       9.937  -1.428   6.948  1.00  0.00    -0.270 OA
HETATM    7  O   UNL     1       8.475  -2.370  12.294  1.00  0.00    -0.270 OA
HETATM    8  O   UNL     1       4.202  -2.371  10.068  1.00  0.00    -0.263 OA
HETATM    9  O   UNL     1      11.013  -2.805  10.826  1.00  0.00    -0.263 OA
HETATM   10  N   UNL     1       6.068  -0.192   6.432  1.00  0.00    -0.340 N 
HETATM   11  N   UNL     1      11.681  -0.456   8.116  1.00  0.00    -0.340 N 
HETATM   12  N   UNL     1       7.322  -0.732  11.112  1.00  0.00    -0.340 N 
HETATM   13  C   UNL     1       6.891   0.559   5.462  1.00  0.00     0.190 C 
HETATM   14  C   UNL     1      11.900  -1.710   8.869  1.00  0.00     0.190 C 
HETATM   15  C   UNL     1       6.013  -1.384  11.327  1.00  0.00     0.190 C 
HETATM   16  C   UNL     1       5.603  -2.298   7.717  1.00  0.00     0.227 C 
HETATM   17  C   UNL     1      10.495   0.801   6.282  1.00  0.00     0.227 C 
HETATM   18  C   UNL     1       9.745  -0.428  11.677  1.00  0.00     0.227 C 
HETATM   19  C   UNL     1       6.377  -1.549   6.636  1.00  0.00     0.250 C 
HETATM   20  C   UNL     1       8.110   1.034   6.234  1.00  0.00     0.283 C 
HETATM   21  C   UNL     1      10.673  -0.454   7.142  1.00  0.00     0.250 C 
HETATM   22  C   UNL     1       8.466  -1.277  11.721  1.00  0.00     0.250 C 
HETATM   23  C   UNL     1       5.337  -1.903  10.061  1.00  0.00     0.283 C 
HETATM   24  C   UNL     1      11.068  -1.786  10.147  1.00  0.00     0.283 C 
HETATM   25  C   UNL     1       5.012   0.536   7.143  1.00  0.00     0.153 C 
HETATM   26  C   UNL     1      12.504   0.704   8.464  1.00  0.00     0.153 C 
HETATM   27  C   UNL     1       7.331   0.558  10.420  1.00  0.00     0.153 C 
ENDROOT
BRANCH  17  28
HETATM   28  C   UNL     1      11.590   0.890   5.230  1.00  0.00     0.016 C 
HETATM   29  C   UNL     1      11.106   0.319   3.897  1.00  0.00     0.012 C 
HETATM   30  C   UNL     1      12.055   2.336   5.055  1.00  0.00     0.012 C 
ENDBRANCH  17  28
BRANCH  13  31
HETATM   31  C   UNL     1       6.208   1.738   4.778  1.00  0.00     0.014 C 
HETATM   32  C   UNL     1       7.261   2.703   4.232  1.00  0.00     0.012 C 
BRANCH  31  33
HETATM   33  C   UNL     1       5.257   1.229   3.680  1.00  0.00     0.002 C 
HETATM   34  C   UNL     1       3.783   1.377   4.030  1.00  0.00     0.005 C 
ENDBRANCH  31  33
ENDBRANCH  13  31
BRANCH  14  35
HETATM   35  C   UNL     1      13.369  -1.984   9.194  1.00  0.00     0.010 C 
HETATM   36  C   UNL     1      13.491  -3.026  10.303  1.00  0.00     0.012 C 
HETATM   37  C   UNL     1      14.122  -2.442   7.945  1.00  0.00     0.012 C 
ENDBRANCH  14  35
BRANCH  16  38
HETATM   38  C   UNL     1       5.824  -3.806   7.628  1.00  0.00     0.016 C 
HETATM   39  C   UNL     1       4.489  -4.548   7.628  1.00  0.00     0.012 C 
HETATM   40  C   UNL     1       6.706  -4.290   8.778  1.00  0.00     0.012 C 
ENDBRANCH  16  38
BRANCH  18  41
HETATM   41  C   UNL     1      10.643  -0.650  12.893  1.00  0.00     0.016 C 
HETATM   42  C   UNL     1       9.945  -0.181  14.168  1.00  0.00     0.012 C 
HETATM   43  C   UNL     1      11.976   0.073  12.715  1.00  0.00     0.012 C 
ENDBRANCH  18  41
BRANCH  15  44
HETATM   44  C   UNL     1       5.062  -0.477  12.109  1.00  0.00     0.010 C 
HETATM   45  C   UNL     1       4.350  -1.266  13.204  1.00  0.00     0.012 C 
HETATM   46  C   UNL     1       4.052   0.174  11.169  1.00  0.00     0.012 C 
ENDBRANCH  15  44
TORSDOF 7
ENDMDL
MODEL 6
REMARK VINA RESULT:    -8.241      2.271      6.374
REMARK INTER + INTRA:          -9.094
REMARK INTER:                 -10.253
REMARK INTRA:                   1.159
REMARK UNBOUND:                 2.519
REMARK  7 active torsions:
REMARK  status: ('A' for Active; 'I' for Inactive)
REMARK    1  A    between atoms: C_13  and  C_14 
REMARK    2  A    between atoms: C_14  and  C_19 
REMARK    3  A    between atoms: C_15  and  C_20 
REMARK    4  A    between atoms: C_16  and  C_21 
REMARK    5  A    between atoms: C_17  and  C_23 
REMARK    6  A    between atoms: C_18  and  C_26 
REMARK    7  A    between atoms: C_22  and  C_28 
ROOT
HETATM    1  O   UNL     1       8.037   0.755   5.393  1.00  0.00    -0.304 OA
HETATM    2  O   UNL     1      11.049   0.145   9.618  1.00  0.00    -0.304 OA
HETATM    3  O   UNL     1       7.087  -2.421   9.366  1.00  0.00    -0.304 OA
HETATM    4  O   UNL     1       9.655   2.471   7.930  1.00  0.00    -0.270 OA
HETATM    5  O   UNL     1       9.485  -0.995   5.788  1.00  0.00    -0.263 OA
HETATM    6  O   UNL     1       7.185   0.869   7.838  1.00  0.00    -0.270 OA
HETATM    7  O   UNL     1       8.965  -2.454  12.009  1.00  0.00    -0.270 OA
HETATM    8  O   UNL     1      12.984  -0.067  10.838  1.00  0.00    -0.263 OA
HETATM    9  O   UNL     1       6.272  -1.448  11.287  1.00  0.00    -0.263 OA
HETATM   10  N   UNL     1      11.128   1.110   6.762  1.00  0.00    -0.340 N 
HETATM   11  N   UNL     1       5.702  -0.903   7.725  1.00  0.00    -0.340 N 
HETATM   12  N   UNL     1      10.227  -2.369  10.056  1.00  0.00    -0.340 N 
HETATM   13  C   UNL     1      10.335   1.270   5.526  1.00  0.00     0.190 C 
HETATM   14  C   UNL     1       5.377  -0.748   9.159  1.00  0.00     0.190 C 
HETATM   15  C   UNL     1      11.446  -1.930  10.767  1.00  0.00     0.190 C 
HETATM   16  C   UNL     1      11.406   1.486   9.229  1.00  0.00     0.227 C 
HETATM   17  C   UNL     1       6.886  -0.075   5.660  1.00  0.00     0.227 C 
HETATM   18  C   UNL     1       7.929  -3.370  10.045  1.00  0.00     0.227 C 
HETATM   19  C   UNL     1      10.651   1.740   7.926  1.00  0.00     0.250 C 
HETATM   20  C   UNL     1       9.267   0.190   5.577  1.00  0.00     0.283 C 
HETATM   21  C   UNL     1       6.612   0.005   7.164  1.00  0.00     0.250 C 
HETATM   22  C   UNL     1       9.076  -2.682  10.800  1.00  0.00     0.250 C 
HETATM   23  C   UNL     1      11.929  -0.527  10.411  1.00  0.00     0.283 C 
HETATM   24  C   UNL     1       6.300  -1.559  10.066  1.00  0.00     0.283 C 
HETATM   25  C   UNL     1      12.333   0.278   6.701  1.00  0.00     0.153 C 
HETATM   26  C   UNL     1       5.083  -2.014   6.999  1.00  0.00     0.153 C 
HETATM   27  C   UNL     1      10.337  -2.629   8.620  1.00  0.00     0.153 C 
ENDROOT
BRANCH  17  28
HETATM   28  C   UNL     1       5.726   0.512   4.870  1.00  0.00     0.016 C 
HETATM   29  C   UNL     1       4.857   1.396   5.764  1.00  0.00     0.012 C 
HETATM   30  C   UNL     1       6.238   1.307   3.669  1.00  0.00     0.012 C 
ENDBRANCH  17  28
BRANCH  13  31
HETATM   31  C   UNL     1      11.113   1.179   4.217  1.00  0.00     0.014 C 
HETATM   32  C   UNL     1      10.212   0.620   3.115  1.00  0.00     0.012 C 
BRANCH  31  33
HETATM   33  C   UNL     1      11.693   2.557   3.854  1.00  0.00     0.002 C 
HETATM   34  C   UNL     1      13.071   2.817   4.446  1.00  0.00     0.005 C 
ENDBRANCH  31  33
ENDBRANCH  13  31
BRANCH  14  35
HETATM   35  C   UNL     1       3.919  -1.059   9.497  1.00  0.00     0.010 C 
HETATM   36  C   UNL     1       3.817  -2.343  10.317  1.00  0.00     0.012 C 
HETATM   37  C   UNL     1       3.278   0.108  10.248  1.00  0.00     0.012 C 
ENDBRANCH  14  35
BRANCH  16  38
HETATM   38  C   UNL     1      10.969   2.448  10.330  1.00  0.00     0.016 C 
HETATM   39  C   UNL     1      12.177   3.166  10.930  1.00  0.00     0.012 C 
HETATM   40  C   UNL     1      10.193   1.706  11.418  1.00  0.00     0.012 C 
ENDBRANCH  16  38
BRANCH  18  41
HETATM   41  C   UNL     1       7.119  -4.314  10.934  1.00  0.00     0.016 C 
HETATM   42  C   UNL     1       8.045  -5.263  11.692  1.00  0.00     0.012 C 
HETATM   43  C   UNL     1       6.109  -5.100  10.101  1.00  0.00     0.012 C 
ENDBRANCH  18  41
BRANCH  15  44
HETATM   44  C   UNL     1      12.579  -2.944  10.606  1.00  0.00     0.010 C 
HETATM   45  C   UNL     1      13.279  -3.179  11.941  1.00  0.00     0.012 C 
HETATM   46  C   UNL     1      13.574  -2.469   9.551  1.00  0.00     0.012 C 
ENDBRANCH  15  44
TORSDOF 7
ENDMDL
MODEL 7
REMARK VINA RESULT:    -8.208      2.387      6.911
REMARK INTER + INTRA:          -9.048
REMARK INTER:                  -9.944
REMARK INTRA:                   0.897
REMARK UNBOUND:                 2.519
REMARK  7 active torsions:
REMARK  status: ('A' for Active; 'I' for Inactive)
REMARK    1  A    between atoms: C_13  and  C_14 
REMARK    2  A    between atoms: C_14  and  C_19 
REMARK    3  A    between atoms: C_15  and  C_20 
REMARK    4  A    between atoms: C_16  and  C_21 
REMARK    5  A    between atoms: C_17  and  C_23 
REMARK    6  A    between atoms: C_18  and  C_26 
REMARK    7  A    between atoms: C_22  and  C_28 
ROOT
HETATM    1  O   UNL     1      10.325   1.476   6.432  1.00  0.00    -0.304 OA
HETATM    2  O   UNL     1       6.808  -2.052   8.004  1.00  0.00    -0.304 OA
HETATM    3  O   UNL     1      10.504  -1.236  10.835  1.00  0.00    -0.304 OA
HETATM    4  O   UNL     1       8.605  -1.366   5.453  1.00  0.00    -0.270 OA
HETATM    5  O   UNL     1       8.679   1.810   8.011  1.00  0.00    -0.263 OA
HETATM    6  O   UNL     1      10.901  -0.917   7.242  1.00  0.00    -0.270 OA
HETATM    7  O   UNL     1       8.344  -3.561  11.493  1.00  0.00    -0.270 OA
HETATM    8  O   UNL     1       4.735  -2.979   8.353  1.00  0.00    -0.263 OA
HETATM    9  O   UNL     1      11.186  -3.428  10.664  1.00  0.00    -0.263 OA
HETATM   10  N   UNL     1       7.149   0.301   6.150  1.00  0.00    -0.340 N 
HETATM   11  N   UNL     1      12.207  -0.317   9.055  1.00  0.00    -0.340 N 
HETATM   12  N   UNL     1       7.326  -1.667  10.606  1.00  0.00    -0.340 N 
HETATM   13  C   UNL     1       8.088   1.347   5.696  1.00  0.00     0.190 C 
HETATM   14  C   UNL     1      12.381  -1.739   9.425  1.00  0.00     0.190 C 
HETATM   15  C   UNL     1       6.083  -2.392  10.271  1.00  0.00     0.190 C 
HETATM   16  C   UNL     1       6.630  -2.118   6.575  1.00  0.00     0.227 C 
HETATM   17  C   UNL     1      11.352   1.423   7.446  1.00  0.00     0.227 C 
HETATM   18  C   UNL     1       9.502  -1.486  11.837  1.00  0.00     0.227 C 
HETATM   19  C   UNL     1       7.549  -1.039   6.007  1.00  0.00     0.250 C 
HETATM   20  C   UNL     1       9.034   1.588   6.861  1.00  0.00     0.283 C 
HETATM   21  C   UNL     1      11.460  -0.034   7.902  1.00  0.00     0.250 C 
HETATM   22  C   UNL     1       8.349  -2.343  11.294  1.00  0.00     0.250 C 
HETATM   23  C   UNL     1       5.782  -2.501   8.779  1.00  0.00     0.283 C 
HETATM   24  C   UNL     1      11.286  -2.243  10.362  1.00  0.00     0.283 C 
HETATM   25  C   UNL     1       5.882   0.732   6.751  1.00  0.00     0.153 C 
HETATM   26  C   UNL     1      12.794   0.696   9.935  1.00  0.00     0.153 C 
HETATM   27  C   UNL     1       7.355  -0.224  10.362  1.00  0.00     0.153 C 
ENDROOT
BRANCH  17  28
HETATM   28  C   UNL     1      12.647   1.877   6.787  1.00  0.00     0.016 C 
HETATM   29  C   UNL     1      12.438   2.106   5.290  1.00  0.00     0.012 C 
HETATM   30  C   UNL     1      13.175   3.147   7.453  1.00  0.00     0.012 C 
ENDBRANCH  17  28
BRANCH  13  31
HETATM   31  C   UNL     1       7.459   2.662   5.248  1.00  0.00     0.014 C 
HETATM   32  C   UNL     1       8.475   3.797   5.386  1.00  0.00     0.012 C 
BRANCH  31  33
HETATM   33  C   UNL     1       6.926   2.527   3.811  1.00  0.00     0.002 C 
HETATM   34  C   UNL     1       7.816   1.688   2.904  1.00  0.00     0.005 C 
ENDBRANCH  31  33
ENDBRANCH  13  31
BRANCH  14  35
HETATM   35  C   UNL     1      13.754  -2.057  10.016  1.00  0.00     0.010 C 
HETATM   36  C   UNL     1      13.750  -3.434  10.678  1.00  0.00     0.012 C 
HETATM   37  C   UNL     1      14.836  -1.985   8.940  1.00  0.00     0.012 C 
ENDBRANCH  14  35
BRANCH  16  38
HETATM   38  C   UNL     1       7.030  -3.510   6.096  1.00  0.00     0.016 C 
HETATM   39  C   UNL     1       5.800  -4.304   5.657  1.00  0.00     0.012 C 
HETATM   40  C   UNL     1       7.789  -4.260   7.190  1.00  0.00     0.012 C 
ENDBRANCH  16  38
BRANCH  18  41
HETATM   41  C   UNL     1      10.109  -2.058  13.118  1.00  0.00     0.016 C 
HETATM   42  C   UNL     1       9.085  -2.044  14.250  1.00  0.00     0.012 C 
HETATM   43  C   UNL     1      11.359  -1.274  13.515  1.00  0.00     0.012 C 
ENDBRANCH  18  41
BRANCH  15  44
HETATM   44  C   UNL     1       4.882  -1.811  11.019  1.00  0.00     0.010 C 
HETATM   45  C   UNL     1       4.020  -2.930  11.597  1.00  0.00     0.012 C 
HETATM   46  C   UNL     1       4.059  -0.918  10.096  1.00  0.00     0.012 C 
ENDBRANCH  15  44
TORSDOF 7
ENDMDL
MODEL 8
REMARK VINA RESULT:    -7.992      2.100      8.123
REMARK INTER + INTRA:          -8.743
REMARK INTER:                  -9.641
REMARK INTRA:                   0.898
REMARK UNBOUND:                 2.519
REMARK  7 active torsions:
REMARK  status: ('A' for Active; 'I' for Inactive)
REMARK    1  A    between atoms: C_13  and  C_14 
REMARK    2  A    between atoms: C_14  and  C_19 
REMARK    3  A    between atoms: C_15  and  C_20 
REMARK    4  A    between atoms: C_16  and  C_21 
REMARK    5  A    between atoms: C_17  and  C_23 
REMARK    6  A    between atoms: C_18  and  C_26 
REMARK    7  A    between atoms: C_22  and  C_28 
ROOT
HETATM    1  O   UNL     1       5.792  -0.660   7.589  1.00  0.00    -0.304 OA
HETATM    2  O   UNL     1       9.584  -1.994  10.925  1.00  0.00    -0.304 OA
HETATM    3  O   UNL     1      10.720   0.904   7.368  1.00  0.00    -0.304 OA
HETATM    4  O   UNL     1       7.345  -3.360   9.103  1.00  0.00    -0.270 OA
HETATM    5  O   UNL     1       6.622   0.649   9.298  1.00  0.00    -0.263 OA
HETATM    6  O   UNL     1       8.114  -1.575   6.890  1.00  0.00    -0.270 OA
HETATM    7  O   UNL     1      12.967  -0.251   9.399  1.00  0.00    -0.270 OA
HETATM    8  O   UNL     1      10.572  -2.464  12.946  1.00  0.00    -0.263 OA
HETATM    9  O   UNL     1      12.243  -0.614   6.547  1.00  0.00    -0.263 OA
HETATM   10  N   UNL     1       6.583  -1.836  10.678  1.00  0.00    -0.340 N 
HETATM   11  N   UNL     1       8.812   0.266   5.675  1.00  0.00    -0.340 N 
HETATM   12  N   UNL     1      10.984   0.254  10.506  1.00  0.00    -0.340 N 
HETATM   13  C   UNL     1       5.470  -1.438   9.792  1.00  0.00     0.190 C 
HETATM   14  C   UNL     1      10.122  -0.372   5.425  1.00  0.00     0.190 C 
HETATM   15  C   UNL     1      11.348  -0.550  11.692  1.00  0.00     0.190 C 
HETATM   16  C   UNL     1       8.703  -3.126  11.058  1.00  0.00     0.227 C 
HETATM   17  C   UNL     1       6.468   0.135   6.590  1.00  0.00     0.227 C 
HETATM   18  C   UNL     1      11.594   1.435   8.381  1.00  0.00     0.227 C 
HETATM   19  C   UNL     1       7.491  -2.795  10.192  1.00  0.00     0.250 C 
HETATM   20  C   UNL     1       6.025  -0.342   8.897  1.00  0.00     0.283 C 
HETATM   21  C   UNL     1       7.864  -0.466   6.405  1.00  0.00     0.250 C 
HETATM   22  C   UNL     1      11.917   0.395   9.463  1.00  0.00     0.250 C 
HETATM   23  C   UNL     1      10.460  -1.766  11.943  1.00  0.00     0.283 C 
HETATM   24  C   UNL     1      11.149  -0.062   6.512  1.00  0.00     0.283 C 
HETATM   25  C   UNL     1       6.688  -1.179  11.985  1.00  0.00     0.153 C 
HETATM   26  C   UNL     1       8.608   1.628   5.177  1.00  0.00     0.153 C 
HETATM   27  C   UNL     1       9.734   1.013  10.559  1.00  0.00     0.153 C 
ENDROOT
BRANCH  17  28
HETATM   28  C   UNL     1       5.657   0.014   5.308  1.00  0.00     0.016 C 
HETATM   29  C   UNL     1       4.708  -1.181   5.381  1.00  0.00     0.012 C 
HETATM   30  C   UNL     1       4.877   1.301   5.039  1.00  0.00     0.012 C 
ENDBRANCH  17  28
BRANCH  13  31
HETATM   31  C   UNL     1       4.202  -0.956  10.489  1.00  0.00     0.014 C 
HETATM   32  C   UNL     1       3.542   0.148   9.660  1.00  0.00     0.012 C 
BRANCH  31  33
HETATM   33  C   UNL     1       3.256  -2.144  10.738  1.00  0.00     0.002 C 
HETATM   34  C   UNL     1       1.798  -1.741  10.905  1.00  0.00     0.005 C 
ENDBRANCH  31  33
ENDBRANCH  13  31
BRANCH  14  35
HETATM   35  C   UNL     1      10.712  -0.049   4.052  1.00  0.00     0.010 C 
HETATM   36  C   UNL     1      11.642   1.160   4.135  1.00  0.00     0.012 C 
HETATM   37  C   UNL     1      11.457  -1.258   3.486  1.00  0.00     0.012 C 
ENDBRANCH  14  35
BRANCH  16  38
HETATM   38  C   UNL     1       9.429  -4.373  10.559  1.00  0.00     0.016 C 
HETATM   39  C   UNL     1       9.810  -5.279  11.729  1.00  0.00     0.012 C 
HETATM   40  C   UNL     1      10.668  -3.989   9.754  1.00  0.00     0.012 C 
ENDBRANCH  16  38
BRANCH  18  41
HETATM   41  C   UNL     1      12.847   2.066   7.776  1.00  0.00     0.016 C 
HETATM   42  C   UNL     1      13.732   2.659   8.871  1.00  0.00     0.012 C 
HETATM   43  C   UNL     1      12.469   3.136   6.754  1.00  0.00     0.012 C 
ENDBRANCH  18  41
BRANCH  15  44
HETATM   44  C   UNL     1      11.433   0.320  12.947  1.00  0.00     0.010 C 
HETATM   45  C   UNL     1      12.579  -0.144  13.842  1.00  0.00     0.012 C 
HETATM   46  C   UNL     1      10.110   0.292  13.706  1.00  0.00     0.012 C 
ENDBRANCH  15  44
TORSDOF 7
ENDMDL
MODEL 9
REMARK VINA RESULT:    -7.955      2.036      6.444
REMARK INTER + INTRA:          -8.692
REMARK INTER:                  -9.993
REMARK INTRA:                   1.301
REMARK UNBOUND:                 2.519
REMARK  7 active torsions:
REMARK  status: ('A' for Active; 'I' for Inactive)
REMARK    1  A    between atoms: C_13  and  C_14 
REMARK    2  A    between atoms: C_14  and  C_19 
REMARK    3  A    between atoms: C_15  and  C_20 
REMARK    4  A    between atoms: C_16  and  C_21 
REMARK    5  A    between atoms: C_17  and  C_23 
REMARK    6  A    between atoms: C_18  and  C_26 
REMARK    7  A    between atoms: C_22  and  C_28 
ROOT
HETATM    1  O   UNL     1      11.319   1.819   7.301  1.00  0.00    -0.304 OA
HETATM    2  O   UNL     1       8.939   0.033  11.595  1.00  0.00    -0.304 OA
HETATM    3  O   UNL     1       7.080  -1.147   7.413  1.00  0.00    -0.304 OA
HETATM    4  O   UNL     1       9.997   2.780  10.355  1.00  0.00    -0.270 OA
HETATM    5  O   UNL     1      11.479  -0.318   8.154  1.00  0.00    -0.263 OA
HETATM    6  O   UNL     1       8.781   2.038   7.777  1.00  0.00    -0.270 OA
HETATM    7  O   UNL     1       5.622  -1.932  10.200  1.00  0.00    -0.270 OA
HETATM    8  O   UNL     1       8.744  -0.849  13.707  1.00  0.00    -0.263 OA
HETATM    9  O   UNL     1       5.102  -0.092   7.935  1.00  0.00    -0.263 OA
HETATM   10  N   UNL     1      11.582   1.104  10.613  1.00  0.00    -0.340 N 
HETATM   11  N   UNL     1       8.026   0.827   5.956  1.00  0.00    -0.340 N 
HETATM   12  N   UNL     1       7.936  -2.121  10.355  1.00  0.00    -0.340 N 
HETATM   13  C   UNL     1      12.318   1.581   9.424  1.00  0.00     0.190 C 
HETATM   14  C   UNL     1       6.626   0.985   6.407  1.00  0.00     0.190 C 
HETATM   15  C   UNL     1       7.917  -2.130  11.832  1.00  0.00     0.190 C 
HETATM   16  C   UNL     1       9.574   1.218  12.116  1.00  0.00     0.227 C 
HETATM   17  C   UNL     1      10.471   1.373   6.219  1.00  0.00     0.227 C 
HETATM   18  C   UNL     1       6.784  -2.353   8.140  1.00  0.00     0.227 C 
HETATM   19  C   UNL     1      10.395   1.776  10.956  1.00  0.00     0.250 C 
HETATM   20  C   UNL     1      11.675   0.888   8.234  1.00  0.00     0.283 C 
HETATM   21  C   UNL     1       9.027   1.440   6.723  1.00  0.00     0.250 C 
HETATM   22  C   UNL     1       6.717  -2.106   9.655  1.00  0.00     0.250 C 
HETATM   23  C   UNL     1       8.587  -0.928  12.493  1.00  0.00     0.283 C 
HETATM   24  C   UNL     1       6.180  -0.129   7.351  1.00  0.00     0.283 C 
HETATM   25  C   UNL     1      12.117  -0.057  11.331  1.00  0.00     0.153 C 
HETATM   26  C   UNL     1       8.273   0.013   4.764  1.00  0.00     0.153 C 
HETATM   27  C   UNL     1       9.227  -2.312   9.693  1.00  0.00     0.153 C 
ENDROOT
BRANCH  17  28
HETATM   28  C   UNL     1      10.684   2.343   5.065  1.00  0.00     0.016 C 
HETATM   29  C   UNL     1       9.692   3.503   5.146  1.00  0.00     0.012 C 
HETATM   30  C   UNL     1      12.119   2.866   5.057  1.00  0.00     0.012 C 
ENDBRANCH  17  28
BRANCH  13  31
HETATM   31  C   UNL     1      13.823   1.335   9.427  1.00  0.00     0.014 C 
HETATM   32  C   UNL     1      14.204   0.436   8.250  1.00  0.00     0.012 C 
BRANCH  31  33
HETATM   33  C   UNL     1      14.574   2.677   9.404  1.00  0.00     0.002 C 
HETATM   34  C   UNL     1      13.658   3.893   9.423  1.00  0.00     0.005 C 
ENDBRANCH  31  33
ENDBRANCH  13  31
BRANCH  14  35
HETATM   35  C   UNL     1       5.623   1.124   5.263  1.00  0.00     0.010 C 
HETATM   36  C   UNL     1       4.191   1.061   5.790  1.00  0.00     0.012 C 
HETATM   37  C   UNL     1       5.853   2.426   4.496  1.00  0.00     0.012 C 
ENDBRANCH  14  35
BRANCH  16  38
HETATM   38  C   UNL     1       8.491   2.196  12.564  1.00  0.00     0.016 C 
HETATM   39  C   UNL     1       8.477   2.325  14.086  1.00  0.00     0.012 C 
HETATM   40  C   UNL     1       7.121   1.756  12.051  1.00  0.00     0.012 C 
ENDBRANCH  16  38
BRANCH  18  41
HETATM   41  C   UNL     1       5.537  -3.051   7.600  1.00  0.00     0.016 C 
HETATM   42  C   UNL     1       5.417  -4.459   8.178  1.00  0.00     0.012 C 
HETATM   43  C   UNL     1       5.567  -3.098   6.074  1.00  0.00     0.012 C 
ENDBRANCH  18  41
BRANCH  15  44
HETATM   44  C   UNL     1       8.489  -3.435  12.388  1.00  0.00     0.010 C 
HETATM   45  C   UNL     1       7.584  -3.993  13.482  1.00  0.00     0.012 C 
HETATM   46  C   UNL     1       9.903  -3.214  12.918  1.00  0.00     0.012 C 
ENDBRANCH  15  44
TORSDOF 7
ENDMDL
MODEL 10
REMARK VINA RESULT:    -7.816      2.436      7.010
REMARK INTER + INTRA:          -8.496
REMARK INTER:                  -9.433
REMARK INTRA:                   0.938
REMARK UNBOUND:                 2.519
REMARK  7 active torsions:
REMARK  status: ('A' for Active; 'I' for Inactive)
REMARK    1  A    between atoms: C_13  and  C_14 
REMARK    2  A    between atoms: C_14  and  C_19 
REMARK    3  A    between atoms: C_15  and  C_20 
REMARK    4  A    between atoms: C_16  and  C_21 
REMARK    5  A    between atoms: C_17  and  C_23 
REMARK    6  A    between atoms: C_18  and  C_26 
REMARK    7  A    between atoms: C_22  and  C_28 
ROOT
HETATM    1  O   UNL     1       4.901  -3.103   9.146  1.00  0.00    -0.304 OA
HETATM    2  O   UNL     1       8.697  -0.359   6.832  1.00  0.00    -0.304 OA
HETATM    3  O   UNL     1       8.310  -0.025  11.531  1.00  0.00    -0.304 OA
HETATM    4  O   UNL     1       5.548  -0.842   6.603  1.00  0.00    -0.270 OA
HETATM    5  O   UNL     1       7.138  -3.662   9.084  1.00  0.00    -0.263 OA
HETATM    6  O   UNL     1       5.335  -0.576   9.528  1.00  0.00    -0.270 OA
HETATM    7  O   UNL     1      10.425   1.785   9.870  1.00  0.00    -0.270 OA
HETATM    8  O   UNL     1      10.403   0.089   5.360  1.00  0.00    -0.263 OA
HETATM    9  O   UNL     1       7.922   2.239  11.392  1.00  0.00    -0.263 OA
HETATM   10  N   UNL     1       6.884  -2.731   6.410  1.00  0.00    -0.340 N 
HETATM   11  N   UNL     1       5.779  -0.685  11.796  1.00  0.00    -0.340 N 
HETATM   12  N   UNL     1      10.268  -0.369   9.004  1.00  0.00    -0.340 N 
HETATM   13  C   UNL     1       5.835  -3.567   7.031  1.00  0.00     0.190 C 
HETATM   14  C   UNL     1       6.063   0.766  11.829  1.00  0.00     0.190 C 
HETATM   15  C   UNL     1      10.899   0.013   7.724  1.00  0.00     0.190 C 
HETATM   16  C   UNL     1       7.752  -0.470   5.750  1.00  0.00     0.227 C 
HETATM   17  C   UNL     1       4.988  -2.719  10.536  1.00  0.00     0.227 C 
HETATM   18  C   UNL     1       9.741   0.077  11.414  1.00  0.00     0.227 C 
HETATM   19  C   UNL     1       6.629  -1.353   6.287  1.00  0.00     0.250 C 
HETATM   20  C   UNL     1       6.063  -3.472   8.530  1.00  0.00     0.283 C 
HETATM   21  C   UNL     1       5.384  -1.240  10.570  1.00  0.00     0.250 C 
HETATM   22  C   UNL     1      10.168   0.587  10.029  1.00  0.00     0.250 C 
HETATM   23  C   UNL     1       9.991  -0.091   6.501  1.00  0.00     0.283 C 
HETATM   24  C   UNL     1       7.528   1.088  11.543  1.00  0.00     0.283 C 
HETATM   25  C   UNL     1       8.130  -3.386   6.001  1.00  0.00     0.153 C 
HETATM   26  C   UNL     1       5.963  -1.447  13.033  1.00  0.00     0.153 C 
HETATM   27  C   UNL     1       9.942  -1.782   9.203  1.00  0.00     0.153 C 
ENDROOT
BRANCH  17  28
HETATM   28  C   UNL     1       3.604  -2.918  11.136  1.00  0.00     0.016 C 
HETATM   29  C   UNL     1       2.523  -2.717  10.075  1.00  0.00     0.012 C 
HETATM   30  C   UNL     1       3.484  -4.306  11.766  1.00  0.00     0.012 C 
ENDBRANCH  17  28
BRANCH  13  31
HETATM   31  C   UNL     1       5.802  -5.028   6.595  1.00  0.00     0.014 C 
HETATM   32  C   UNL     1       5.119  -5.875   7.671  1.00  0.00     0.012 C 
BRANCH  31  33
HETATM   33  C   UNL     1       5.108  -5.152   5.227  1.00  0.00     0.002 C 
HETATM   34  C   UNL     1       5.902  -5.960   4.210  1.00  0.00     0.005 C 
ENDBRANCH  31  33
ENDBRANCH  13  31
BRANCH  14  35
HETATM   35  C   UNL     1       5.629   1.449  13.126  1.00  0.00     0.010 C 
HETATM   36  C   UNL     1       6.712   2.405  13.621  1.00  0.00     0.012 C 
HETATM   37  C   UNL     1       4.309   2.193  12.929  1.00  0.00     0.012 C 
ENDBRANCH  14  35
BRANCH  16  38
HETATM   38  C   UNL     1       7.250   0.927   5.393  1.00  0.00     0.016 C 
HETATM   39  C   UNL     1       7.653   1.297   3.967  1.00  0.00     0.012 C 
HETATM   40  C   UNL     1       7.782   1.960   6.385  1.00  0.00     0.012 C 
ENDBRANCH  16  38
BRANCH  18  41
HETATM   41  C   UNL     1      10.348   0.891  12.556  1.00  0.00     0.016 C 
HETATM   42  C   UNL     1      11.870   0.774  12.548  1.00  0.00     0.012 C 
HETATM   43  C   UNL     1       9.781   0.436  13.899  1.00  0.00     0.012 C 
ENDBRANCH  18  41
BRANCH  15  44
HETATM   44  C   UNL     1      12.199  -0.759   7.493  1.00  0.00     0.010 C 
HETATM   45  C   UNL     1      11.904  -2.230   7.211  1.00  0.00     0.012 C 
HETATM   46  C   UNL     1      13.126  -0.615   8.696  1.00  0.00     0.012 C 
ENDBRANCH  15  44
TORSDOF 7
ENDMDL
MODEL 11
REMARK VINA RESULT:    -7.791      2.553      7.068
REMARK INTER + INTRA:          -8.461
REMARK INTER:                  -9.574
REMARK INTRA:                   1.113
REMARK UNBOUND:                 2.519
REMARK  7 active torsions:
REMARK  status: ('A' for Active; 'I' for Inactive)
REMARK    1  A    between atoms: C_13  and  C_14 
REMARK    2  A    between atoms: C_14  and  C_19 
REMARK    3  A    between atoms: C_15  and  C_20 
REMARK    4  A    between atoms: C_16  and  C_21 
REMARK    5  A    between atoms: C_17  and  C_23 
REMARK    6  A    between atoms: C_18  and  C_26 
REMARK    7  A    between atoms: C_22  and  C_28 
ROOT
HETATM    1  O   UNL     1       5.641  -0.838   9.157  1.00  0.00    -0.304 OA
HETATM    2  O   UNL     1      10.626   0.178   7.971  1.00  0.00    -0.304 OA
HETATM    3  O   UNL     1       9.551  -0.477  12.527  1.00  0.00    -0.304 OA
HETATM    4  O   UNL     1       7.704   1.357   7.447  1.00  0.00    -0.270 OA
HETATM    5  O   UNL     1       7.352  -2.379   9.044  1.00  0.00    -0.263 OA
HETATM    6  O   UNL     1       7.085   0.984  10.303  1.00  0.00    -0.270 OA
HETATM    7  O   UNL     1      12.526   0.414  11.597  1.00  0.00    -0.270 OA
HETATM    8  O   UNL     1      12.595   0.079   6.791  1.00  0.00    -0.263 OA
HETATM    9  O   UNL     1      10.259   1.648  13.055  1.00  0.00    -0.263 OA
HETATM   10  N   UNL     1       8.055  -0.834   6.765  1.00  0.00    -0.340 N 
HETATM   11  N   UNL     1       6.995   0.135  12.453  1.00  0.00    -0.340 N 
HETATM   12  N   UNL     1      11.582  -1.113  10.118  1.00  0.00    -0.340 N 
HETATM   13  C   UNL     1       6.646  -1.176   7.050  1.00  0.00     0.190 C 
HETATM   14  C   UNL     1       7.891   1.209  12.934  1.00  0.00     0.190 C 
HETATM   15  C   UNL     1      12.547  -0.792   9.045  1.00  0.00     0.190 C 
HETATM   16  C   UNL     1       9.956   0.803   6.859  1.00  0.00     0.227 C 
HETATM   17  C   UNL     1       5.628  -0.889  10.601  1.00  0.00     0.227 C 
HETATM   18  C   UNL     1      10.868  -1.058  12.519  1.00  0.00     0.227 C 
HETATM   19  C   UNL     1       8.477   0.478   7.048  1.00  0.00     0.250 C 
HETATM   20  C   UNL     1       6.605  -1.565   8.519  1.00  0.00     0.283 C 
HETATM   21  C   UNL     1       6.632   0.154  11.098  1.00  0.00     0.250 C 
HETATM   22  C   UNL     1      11.732  -0.505  11.376  1.00  0.00     0.250 C 
HETATM   23  C   UNL     1      11.938  -0.146   7.803  1.00  0.00     0.283 C 
HETATM   24  C   UNL     1       9.368   0.835  12.834  1.00  0.00     0.283 C 
HETATM   25  C   UNL     1       8.924  -1.892   6.241  1.00  0.00     0.153 C 
HETATM   26  C   UNL     1       6.579  -0.891  13.411  1.00  0.00     0.153 C 
HETATM   27  C   UNL     1      10.624  -2.190   9.866  1.00  0.00     0.153 C 
ENDROOT
BRANCH  17  28
HETATM   28  C   UNL     1       4.216  -0.528  11.041  1.00  0.00     0.016 C 
HETATM   29  C   UNL     1       3.492   0.253   9.945  1.00  0.00     0.012 C 
HETATM   30  C   UNL     1       3.429  -1.784  11.412  1.00  0.00     0.012 C 
ENDBRANCH  17  28
BRANCH  13  31
HETATM   31  C   UNL     1       6.041  -2.283   6.195  1.00  0.00     0.014 C 
HETATM   32  C   UNL     1       5.684  -3.483   7.075  1.00  0.00     0.012 C 
BRANCH  31  33
HETATM   33  C   UNL     1       4.825  -1.744   5.422  1.00  0.00     0.002 C 
HETATM   34  C   UNL     1       4.808  -0.228   5.286  1.00  0.00     0.005 C 
ENDBRANCH  31  33
ENDBRANCH  13  31
BRANCH  14  35
HETATM   35  C   UNL     1       7.575   1.684  14.352  1.00  0.00     0.010 C 
HETATM   36  C   UNL     1       8.734   2.501  14.919  1.00  0.00     0.012 C 
HETATM   37  C   UNL     1       6.284   2.501  14.373  1.00  0.00     0.012 C 
ENDBRANCH  14  35
BRANCH  16  38
HETATM   38  C   UNL     1      10.214   2.307   6.914  1.00  0.00     0.016 C 
HETATM   39  C   UNL     1      11.119   2.740   5.761  1.00  0.00     0.012 C 
HETATM   40  C   UNL     1      10.831   2.699   8.255  1.00  0.00     0.012 C 
ENDBRANCH  16  38
BRANCH  18  41
HETATM   41  C   UNL     1      11.548  -0.942  13.883  1.00  0.00     0.016 C 
HETATM   42  C   UNL     1      12.804  -1.810  13.932  1.00  0.00     0.012 C 
HETATM   43  C   UNL     1      10.582  -1.332  14.999  1.00  0.00     0.012 C 
ENDBRANCH  18  41
BRANCH  15  44
HETATM   44  C   UNL     1      13.377  -2.017   8.659  1.00  0.00     0.010 C 
HETATM   45  C   UNL     1      14.859  -1.660   8.597  1.00  0.00     0.012 C 
HETATM   46  C   UNL     1      12.902  -2.585   7.325  1.00  0.00     0.012 C 
ENDBRANCH  15  44
TORSDOF 7
ENDMDL
MODEL 12
REMARK VINA RESULT:    -7.714      2.362      6.905
REMARK INTER + INTRA:          -8.352
REMARK INTER:                  -9.776
REMARK INTRA:                   1.424
REMARK UNBOUND:                 2.519
REMARK  7 active torsions:
REMARK  status: ('A' for Active; 'I' for Inactive)
REMARK    1  A    between atoms: C_13  and  C_14 
REMARK    2  A    between atoms: C_14  and  C_19 
REMARK    3  A    between atoms: C_15  and  C_20 
REMARK    4  A    between atoms: C_16  and  C_21 
REMARK    5  A    between atoms: C_17  and  C_23 
REMARK    6  A    between atoms: C_18  and  C_26 
REMARK    7  A    between atoms: C_22  and  C_28 
ROOT
HETATM    1  O   UNL     1      10.661  -2.582  11.279  1.00  0.00    -0.304 OA
HETATM    2  O   UNL     1       6.488  -0.311   9.108  1.00  0.00    -0.304 OA
HETATM    3  O   UNL     1      10.751   0.968   7.516  1.00  0.00    -0.304 OA
HETATM    4  O   UNL     1       7.732  -0.879  11.995  1.00  0.00    -0.270 OA
HETATM    5  O   UNL     1       9.739  -3.108   9.232  1.00  0.00    -0.263 OA
HETATM    6  O   UNL     1      10.363  -0.025  10.984  1.00  0.00    -0.270 OA
HETATM    7  O   UNL     1       8.047   2.433   6.490  1.00  0.00    -0.270 OA
HETATM    8  O   UNL     1       4.369  -0.147   8.234  1.00  0.00    -0.263 OA
HETATM    9  O   UNL     1      10.393   3.150   8.154  1.00  0.00    -0.263 OA
HETATM   10  N   UNL     1       7.320  -2.746  10.679  1.00  0.00    -0.340 N 
HETATM   11  N   UNL     1      12.196   0.339   9.620  1.00  0.00    -0.340 N 
HETATM   12  N   UNL     1       7.731   0.146   6.777  1.00  0.00    -0.340 N 
HETATM   13  C   UNL     1       8.470  -3.454  11.279  1.00  0.00     0.190 C 
HETATM   14  C   UNL     1      11.844   1.770   9.497  1.00  0.00     0.190 C 
HETATM   15  C   UNL     1       6.259   0.268   6.785  1.00  0.00     0.190 C 
HETATM   16  C   UNL     1       5.959  -0.655  10.404  1.00  0.00     0.227 C 
HETATM   17  C   UNL     1      11.784  -1.922  10.656  1.00  0.00     0.227 C 
HETATM   18  C   UNL     1      10.011   1.066   6.285  1.00  0.00     0.227 C 
HETATM   19  C   UNL     1       7.076  -1.427  11.101  1.00  0.00     0.250 C 
HETATM   20  C   UNL     1       9.680  -3.051  10.453  1.00  0.00     0.283 C 
HETATM   21  C   UNL     1      11.381  -0.461  10.435  1.00  0.00     0.250 C 
HETATM   22  C   UNL     1       8.512   1.290   6.534  1.00  0.00     0.250 C 
HETATM   23  C   UNL     1       5.589  -0.097   8.107  1.00  0.00     0.283 C 
HETATM   24  C   UNL     1      10.902   2.048   8.328  1.00  0.00     0.283 C 
HETATM   25  C   UNL     1       6.535  -3.453   9.662  1.00  0.00     0.153 C 
HETATM   26  C   UNL     1      13.345  -0.153   8.857  1.00  0.00     0.153 C 
HETATM   27  C   UNL     1       8.299  -1.201   6.844  1.00  0.00     0.153 C 
ENDROOT
BRANCH  17  28
HETATM   28  C   UNL     1      12.948  -2.016  11.632  1.00  0.00     0.016 C 
HETATM   29  C   UNL     1      12.443  -2.031  13.074  1.00  0.00     0.012 C 
HETATM   30  C   UNL     1      13.792  -3.258  11.347  1.00  0.00     0.012 C 
ENDBRANCH  17  28
BRANCH  13  31
HETATM   31  C   UNL     1       8.359  -4.974  11.344  1.00  0.00     0.014 C 
HETATM   32  C   UNL     1       9.655  -5.566  11.900  1.00  0.00     0.012 C 
BRANCH  31  33
HETATM   33  C   UNL     1       7.128  -5.375  12.177  1.00  0.00     0.002 C 
HETATM   34  C   UNL     1       6.390  -6.590  11.633  1.00  0.00     0.005 C 
ENDBRANCH  31  33
ENDBRANCH  13  31
BRANCH  14  35
HETATM   35  C   UNL     1      13.057   2.696   9.413  1.00  0.00     0.010 C 
HETATM   36  C   UNL     1      13.172   3.310   8.019  1.00  0.00     0.012 C 
HETATM   37  C   UNL     1      12.975   3.792  10.475  1.00  0.00     0.012 C 
ENDBRANCH  14  35
BRANCH  16  38
HETATM   38  C   UNL     1       5.613   0.632  11.148  1.00  0.00     0.016 C 
HETATM   39  C   UNL     1       6.883   1.362  11.584  1.00  0.00     0.012 C 
HETATM   40  C   UNL     1       4.726   0.334  12.356  1.00  0.00     0.012 C 
ENDBRANCH  16  38
BRANCH  18  41
HETATM   41  C   UNL     1      10.614   2.105   5.341  1.00  0.00     0.016 C 
HETATM   42  C   UNL     1       9.813   2.179   4.043  1.00  0.00     0.012 C 
HETATM   43  C   UNL     1      12.078   1.780   5.050  1.00  0.00     0.012 C 
ENDBRANCH  18  41
BRANCH  15  44
HETATM   44  C   UNL     1       5.630  -0.515   5.632  1.00  0.00     0.010 C 
HETATM   45  C   UNL     1       4.491   0.283   5.002  1.00  0.00     0.012 C 
HETATM   46  C   UNL     1       5.133  -1.873   6.118  1.00  0.00     0.012 C 
ENDBRANCH  15  44
TORSDOF 7
ENDMDL
MODEL 13
REMARK VINA RESULT:    -7.587      2.249      3.276
REMARK INTER + INTRA:          -8.173
REMARK INTER:                  -9.662
REMARK INTRA:                   1.489
REMARK UNBOUND:                 2.519
REMARK  7 active torsions:
REMARK  status: ('A' for Active; 'I' for Inactive)
REMARK    1  A    between atoms: C_13  and  C_14 
REMARK    2  A    between atoms: C_14  and  C_19 
REMARK    3  A    between atoms: C_15  and  C_20 
REMARK    4  A    between atoms: C_16  and  C_21 
REMARK    5  A    between atoms: C_17  and  C_23 
REMARK    6  A    between atoms: C_18  and  C_26 
REMARK    7  A    between atoms: C_22  and  C_28 
ROOT
HETATM    1  O   UNL     1      12.774   0.045  10.452  1.00  0.00    -0.304 OA
HETATM    2  O   UNL     1       9.937  -0.103   6.068  1.00  0.00    -0.304 OA
HETATM    3  O   UNL     1       8.139  -2.192   9.909  1.00  0.00    -0.304 OA
HETATM    4  O   UNL     1      12.891  -0.764   7.086  1.00  0.00    -0.270 OA
HETATM    5  O   UNL     1      10.950   1.370   9.969  1.00  0.00    -0.263 OA
HETATM    6  O   UNL     1      11.736  -2.104   9.441  1.00  0.00    -0.270 OA
HETATM    7  O   UNL     1       6.668  -2.385   7.027  1.00  0.00    -0.270 OA
HETATM    8  O   UNL     1       9.004   0.659   4.111  1.00  0.00    -0.263 OA
HETATM    9  O   UNL     1       8.102  -4.233   8.846  1.00  0.00    -0.263 OA
HETATM   10  N   UNL     1      12.171   1.420   7.403  1.00  0.00    -0.340 N 
HETATM   11  N   UNL     1      10.369  -2.649  11.226  1.00  0.00    -0.340 N 
HETATM   12  N   UNL     1       7.604  -0.284   7.377  1.00  0.00    -0.340 N 
HETATM   13  C   UNL     1      12.978   1.535   8.635  1.00  0.00     0.190 C 
HETATM   14  C   UNL     1       9.824  -3.804  10.480  1.00  0.00     0.190 C 
HETATM   15  C   UNL     1       7.541   0.072   5.944  1.00  0.00     0.190 C 
HETATM   16  C   UNL     1      11.264   0.027   5.522  1.00  0.00     0.227 C 
HETATM   17  C   UNL     1      12.011  -0.745  11.391  1.00  0.00     0.227 C 
HETATM   18  C   UNL     1       6.917  -1.712   9.319  1.00  0.00     0.227 C 
HETATM   19  C   UNL     1      12.182   0.184   6.731  1.00  0.00     0.250 C 
HETATM   20  C   UNL     1      12.099   1.007   9.756  1.00  0.00     0.283 C 
HETATM   21  C   UNL     1      11.363  -1.883  10.598  1.00  0.00     0.250 C 
HETATM   22  C   UNL     1       7.055  -1.506   7.803  1.00  0.00     0.250 C 
HETATM   23  C   UNL     1       8.897   0.259   5.267  1.00  0.00     0.283 C 
HETATM   24  C   UNL     1       8.604  -3.441   9.637  1.00  0.00     0.283 C 
HETATM   25  C   UNL     1      11.387   2.587   6.986  1.00  0.00     0.153 C 
HETATM   26  C   UNL     1       9.809  -2.362  12.548  1.00  0.00     0.153 C 
HETATM   27  C   UNL     1       8.075   0.742   8.309  1.00  0.00     0.153 C 
ENDROOT
BRANCH  17  28
HETATM   28  C   UNL     1      12.998  -1.293  12.410  1.00  0.00     0.016 C 
HETATM   29  C   UNL     1      14.424  -1.242  11.862  1.00  0.00     0.012 C 
HETATM   30  C   UNL     1      12.902  -0.520  13.725  1.00  0.00     0.012 C 
ENDBRANCH  17  28
BRANCH  13  31
HETATM   31  C   UNL     1      13.482   2.933   8.975  1.00  0.00     0.014 C 
HETATM   32  C   UNL     1      12.929   3.369  10.333  1.00  0.00     0.012 C 
BRANCH  31  33
HETATM   33  C   UNL     1      15.020   2.961   8.936  1.00  0.00     0.002 C 
HETATM   34  C   UNL     1      15.600   2.777   7.540  1.00  0.00     0.005 C 
ENDBRANCH  31  33
ENDBRANCH  13  31
BRANCH  14  35
HETATM   35  C   UNL     1       9.500  -5.009  11.362  1.00  0.00     0.010 C 
HETATM   36  C   UNL     1      10.741  -5.469  12.125  1.00  0.00     0.012 C 
HETATM   37  C   UNL     1       8.367  -4.678  12.334  1.00  0.00     0.012 C 
ENDBRANCH  14  35
BRANCH  16  38
HETATM   38  C   UNL     1      11.591  -1.233   4.725  1.00  0.00     0.016 C 
HETATM   39  C   UNL     1      11.455  -0.973   3.225  1.00  0.00     0.012 C 
HETATM   40  C   UNL     1      10.689  -2.390   5.152  1.00  0.00     0.012 C 
ENDBRANCH  16  38
BRANCH  18  41
HETATM   41  C   UNL     1       5.724  -2.593   9.689  1.00  0.00     0.016 C 
HETATM   42  C   UNL     1       4.438  -2.035   9.084  1.00  0.00     0.012 C 
HETATM   43  C   UNL     1       5.596  -2.713  11.206  1.00  0.00     0.012 C 
ENDBRANCH  18  41
BRANCH  15  44
HETATM   44  C   UNL     1       6.654   1.295   5.713  1.00  0.00     0.010 C 
HETATM   45  C   UNL     1       5.704   1.054   4.543  1.00  0.00     0.012 C 
HETATM   46  C   UNL     1       7.508   2.536   5.466  1.00  0.00     0.012 C 
ENDBRANCH  15  44
TORSDOF 7
ENDMDL
MODEL 14
REMARK VINA RESULT:    -7.405      2.176      7.779
REMARK INTER + INTRA:          -7.917
REMARK INTER:                 -10.436
REMARK INTRA:                   2.519
REMARK UNBOUND:                 2.519
REMARK  7 active torsions:
REMARK  status: ('A' for Active; 'I' for Inactive)
REMARK    1  A    between atoms: C_13  and  C_14 
REMARK    2  A    between atoms: C_14  and  C_19 
REMARK    3  A    between atoms: C_15  and  C_20 
REMARK    4  A    between atoms: C_16  and  C_21 
REMARK    5  A    between atoms: C_17  and  C_23 
REMARK    6  A    between atoms: C_18  and  C_26 
REMARK    7  A    between atoms: C_22  and  C_28 
ROOT
HETATM    1  O   UNL     1       5.349   0.477   6.797  1.00  0.00    -0.304 OA
HETATM    2  O   UNL     1       9.145  -2.887   8.050  1.00  0.00    -0.304 OA
HETATM    3  O   UNL     1      10.417   1.200   6.043  1.00  0.00    -0.304 OA
HETATM    4  O   UNL     1       6.378  -2.813   6.456  1.00  0.00    -0.270 OA
HETATM    5  O   UNL     1       6.737   0.617   8.633  1.00  0.00    -0.263 OA
HETATM    6  O   UNL     1       7.225  -0.295   5.183  1.00  0.00    -0.270 OA
HETATM    7  O   UNL     1      12.582  -1.132   6.665  1.00  0.00    -0.270 OA
HETATM    8  O   UNL     1      10.280  -4.443   9.302  1.00  0.00    -0.263 OA
HETATM    9  O   UNL     1      11.358   0.091   4.258  1.00  0.00    -0.263 OA
HETATM   10  N   UNL     1       6.282  -2.188   8.689  1.00  0.00    -0.340 N 
HETATM   11  N   UNL     1       8.172   1.781   4.804  1.00  0.00    -0.340 N 
HETATM   12  N   UNL     1      10.989  -0.964   8.352  1.00  0.00    -0.340 N 
HETATM   13  C   UNL     1       5.184  -1.242   8.404  1.00  0.00     0.190 C 
HETATM   14  C   UNL     1       9.222   1.169   3.961  1.00  0.00     0.190 C 
HETATM   15  C   UNL     1      11.314  -2.296   8.903  1.00  0.00     0.190 C 
HETATM   16  C   UNL     1       8.035  -3.790   7.877  1.00  0.00     0.227 C 
HETATM   17  C   UNL     1       6.042   1.556   6.132  1.00  0.00     0.227 C 
HETATM   18  C   UNL     1      11.543   1.018   6.921  1.00  0.00     0.227 C 
HETATM   19  C   UNL     1       6.829  -2.896   7.604  1.00  0.00     0.250 C 
HETATM   20  C   UNL     1       5.854   0.059   7.995  1.00  0.00     0.283 C 
HETATM   21  C   UNL     1       7.193   0.931   5.339  1.00  0.00     0.250 C 
HETATM   22  C   UNL     1      11.753  -0.459   7.286  1.00  0.00     0.250 C 
HETATM   23  C   UNL     1      10.196  -3.329   8.794  1.00  0.00     0.283 C 
HETATM   24  C   UNL     1      10.448   0.740   4.763  1.00  0.00     0.283 C 
HETATM   25  C   UNL     1       6.751  -2.297  10.074  1.00  0.00     0.153 C 
HETATM   26  C   UNL     1       8.247   3.223   5.053  1.00  0.00     0.153 C 
HETATM   27  C   UNL     1       9.997  -0.159   9.067  1.00  0.00     0.153 C 
ENDROOT
BRANCH  17  28
HETATM   28  C   UNL     1       5.039   2.213   5.195  1.00  0.00     0.016 C 
HETATM   29  C   UNL     1       5.578   2.245   3.765  1.00  0.00     0.012 C 
HETATM   30  C   UNL     1       3.697   1.483   5.244  1.00  0.00     0.012 C 
ENDBRANCH  17  28
BRANCH  13  31
HETATM   31  C   UNL     1       4.203  -0.993   9.545  1.00  0.00     0.014 C 
HETATM   32  C   UNL     1       3.449   0.316   9.305  1.00  0.00     0.012 C 
BRANCH  31  33
HETATM   33  C   UNL     1       3.254  -2.195   9.693  1.00  0.00     0.002 C 
HETATM   34  C   UNL     1       2.811  -2.452  11.127  1.00  0.00     0.005 C 
ENDBRANCH  31  33
ENDBRANCH  13  31
BRANCH  14  35
HETATM   35  C   UNL     1       9.655   2.045   2.786  1.00  0.00     0.010 C 
HETATM   36  C   UNL     1      11.176   2.043   2.643  1.00  0.00     0.012 C 
HETATM   37  C   UNL     1       8.995   1.575   1.490  1.00  0.00     0.012 C 
ENDBRANCH  14  35
BRANCH  16  38
HETATM   38  C   UNL     1       8.334  -4.711   6.696  1.00  0.00     0.016 C 
HETATM   39  C   UNL     1       9.061  -3.951   5.589  1.00  0.00     0.012 C 
HETATM   40  C   UNL     1       7.047  -5.336   6.161  1.00  0.00     0.012 C 
ENDBRANCH  16  38
BRANCH  18  41
HETATM   41  C   UNL     1      12.807   1.675   6.368  1.00  0.00     0.016 C 
HETATM   42  C   UNL     1      13.877   1.777   7.452  1.00  0.00     0.012 C 
HETATM   43  C   UNL     1      12.488   3.055   5.797  1.00  0.00     0.012 C 
ENDBRANCH  18  41
BRANCH  15  44
HETATM   44  C   UNL     1      11.811  -2.194  10.346  1.00  0.00     0.010 C 
HETATM   45  C   UNL     1      12.708  -0.971  10.517  1.00  0.00     0.012 C 
HETATM   46  C   UNL     1      12.551  -3.467  10.746  1.00  0.00     0.012 C 
ENDBRANCH  15  44
TORSDOF 7
ENDMDL
MODEL 15
REMARK VINA RESULT:    -7.401      2.379      2.954
REMARK INTER + INTRA:          -7.910
REMARK INTER:                  -8.940
REMARK INTRA:                   1.030
REMARK UNBOUND:                 2.519
REMARK  7 active torsions:
REMARK  status: ('A' for Active; 'I' for Inactive)
REMARK    1  A    between atoms: C_13  and  C_14 
REMARK    2  A    between atoms: C_14  and  C_19 
REMARK    3  A    between atoms: C_15  and  C_20 
REMARK    4  A    between atoms: C_16  and  C_21 
REMARK    5  A    between atoms: C_17  and  C_23 
REMARK    6  A    between atoms: C_18  and  C_26 
REMARK    7  A    between atoms: C_22  and  C_28 
ROOT
HETATM    1  O   UNL     1      11.465  -2.401  11.044  1.00  0.00    -0.304 OA
HETATM    2  O   UNL     1      10.405  -0.862   6.165  1.00  0.00    -0.304 OA
HETATM    3  O   UNL     1       6.768  -1.346   9.146  1.00  0.00    -0.304 OA
HETATM    4  O   UNL     1      11.982  -3.173   7.707  1.00  0.00    -0.270 OA
HETATM    5  O   UNL     1      10.996  -0.246  10.370  1.00  0.00    -0.263 OA
HETATM    6  O   UNL     1       9.676  -3.485   9.514  1.00  0.00    -0.270 OA
HETATM    7  O   UNL     1       6.313  -0.651   6.012  1.00  0.00    -0.270 OA
HETATM    8  O   UNL     1      10.675   0.276   4.188  1.00  0.00    -0.263 OA
HETATM    9  O   UNL     1       5.816  -2.958   7.806  1.00  0.00    -0.263 OA
HETATM   10  N   UNL     1      12.644  -0.999   8.180  1.00  0.00    -0.340 N 
HETATM   11  N   UNL     1       7.835  -3.048  10.843  1.00  0.00    -0.340 N 
HETATM   12  N   UNL     1       8.174   0.445   6.876  1.00  0.00    -0.340 N 
HETATM   13  C   UNL     1      12.993  -1.380   9.565  1.00  0.00     0.190 C 
HETATM   14  C   UNL     1       6.938  -3.642   9.829  1.00  0.00     0.190 C 
HETATM   15  C   UNL     1       8.724   0.739   5.536  1.00  0.00     0.190 C 
HETATM   16  C   UNL     1      11.637  -1.580   5.956  1.00  0.00     0.227 C 
HETATM   17  C   UNL     1      10.165  -2.542  11.657  1.00  0.00     0.227 C 
HETATM   18  C   UNL     1       6.284  -0.231   8.377  1.00  0.00     0.227 C 
HETATM   19  C   UNL     1      12.101  -1.995   7.349  1.00  0.00     0.250 C 
HETATM   20  C   UNL     1      11.711  -1.240  10.368  1.00  0.00     0.283 C 
HETATM   21  C   UNL     1       9.212  -3.061  10.577  1.00  0.00     0.250 C 
HETATM   22  C   UNL     1       6.919  -0.178   6.979  1.00  0.00     0.250 C 
HETATM   23  C   UNL     1      10.046   0.046   5.216  1.00  0.00     0.283 C 
HETATM   24  C   UNL     1       6.453  -2.624   8.799  1.00  0.00     0.283 C 
HETATM   25  C   UNL     1      12.852   0.396   7.780  1.00  0.00     0.153 C 
HETATM   26  C   UNL     1       7.224  -2.455  12.035  1.00  0.00     0.153 C 
HETATM   27  C   UNL     1       8.889   0.985   8.034  1.00  0.00     0.153 C 
ENDROOT
BRANCH  17  28
HETATM   28  C   UNL     1      10.315  -3.561  12.777  1.00  0.00     0.016 C 
HETATM   29  C   UNL     1      11.340  -4.630  12.400  1.00  0.00     0.012 C 
HETATM   30  C   UNL     1      10.714  -2.875  14.082  1.00  0.00     0.012 C 
ENDBRANCH  17  28
BRANCH  13  31
HETATM   31  C   UNL     1      14.113  -0.576  10.216  1.00  0.00     0.014 C 
HETATM   32  C   UNL     1      14.133  -0.840  11.723  1.00  0.00     0.012 C 
BRANCH  31  33
HETATM   33  C   UNL     1      15.457  -0.910   9.546  1.00  0.00     0.002 C 
HETATM   34  C   UNL     1      16.668  -0.598  10.414  1.00  0.00     0.005 C 
ENDBRANCH  31  33
ENDBRANCH  13  31
BRANCH  14  35
HETATM   35  C   UNL     1       5.740  -4.381  10.425  1.00  0.00     0.010 C 
HETATM   36  C   UNL     1       4.430  -3.730   9.986  1.00  0.00     0.012 C 
HETATM   37  C   UNL     1       5.763  -5.857  10.026  1.00  0.00     0.012 C 
ENDBRANCH  14  35
BRANCH  16  38
HETATM   38  C   UNL     1      11.352  -2.791   5.071  1.00  0.00     0.016 C 
HETATM   39  C   UNL     1      11.651  -2.472   3.607  1.00  0.00     0.012 C 
HETATM   40  C   UNL     1       9.904  -3.250   5.234  1.00  0.00     0.012 C 
ENDBRANCH  16  38
BRANCH  18  41
HETATM   41  C   UNL     1       4.757  -0.191   8.333  1.00  0.00     0.016 C 
HETATM   42  C   UNL     1       4.275   0.923   7.407  1.00  0.00     0.012 C 
HETATM   43  C   UNL     1       4.185  -0.007   9.737  1.00  0.00     0.012 C 
ENDBRANCH  18  41
BRANCH  15  44
HETATM   44  C   UNL     1       8.837   2.245   5.300  1.00  0.00     0.010 C 
HETATM   45  C   UNL     1       8.121   2.640   4.011  1.00  0.00     0.012 C 
HETATM   46  C   UNL     1      10.302   2.669   5.254  1.00  0.00     0.012 C 
ENDBRANCH  15  44
TORSDOF 7
ENDMDL
MODEL 16
REMARK VINA RESULT:    -7.397      2.314      6.477
REMARK INTER + INTRA:          -7.905
REMARK INTER:                  -9.189
REMARK INTRA:                   1.284
REMARK UNBOUND:                 2.519
REMARK  7 active torsions:
REMARK  status: ('A' for Active; 'I' for Inactive)
REMARK    1  A    between atoms: C_13  and  C_14 
REMARK    2  A    between atoms: C_14  and  C_19 
REMARK    3  A    between atoms: C_15  and  C_20 
REMARK    4  A    between atoms: C_16  and  C_21 
REMARK    5  A    between atoms: C_17  and  C_23 
REMARK    6  A    between atoms: C_18  and  C_26 
REMARK    7  A    between atoms: C_22  and  C_28 
ROOT
HETATM    1  O   UNL     1      11.360   0.882   7.557  1.00  0.00    -0.304 OA
HETATM    2  O   UNL     1       8.874  -1.412  11.538  1.00  0.00    -0.304 OA
HETATM    3  O   UNL     1       6.793  -1.537   7.295  1.00  0.00    -0.304 OA
HETATM    4  O   UNL     1      10.232   1.381  10.794  1.00  0.00    -0.270 OA
HETATM    5  O   UNL     1      11.276  -1.383   7.982  1.00  0.00    -0.263 OA
HETATM    6  O   UNL     1       8.879   1.298   8.179  1.00  0.00    -0.270 OA
HETATM    7  O   UNL     1       5.311  -2.672   9.945  1.00  0.00    -0.270 OA
HETATM    8  O   UNL     1       8.617  -2.658  13.451  1.00  0.00    -0.263 OA
HETATM    9  O   UNL     1       4.971  -0.381   8.096  1.00  0.00    -0.263 OA
HETATM   10  N   UNL     1      11.605  -0.485  10.659  1.00  0.00    -0.340 N 
HETATM   11  N   UNL     1       7.941   0.558   6.197  1.00  0.00    -0.340 N 
HETATM   12  N   UNL     1       7.587  -3.155   9.958  1.00  0.00    -0.340 N 
HETATM   13  C   UNL     1      12.368   0.124   9.550  1.00  0.00     0.190 C 
HETATM   14  C   UNL     1       6.582   0.787   6.733  1.00  0.00     0.190 C 
HETATM   15  C   UNL     1       7.599  -3.447  11.406  1.00  0.00     0.190 C 
HETATM   16  C   UNL     1       9.660  -0.433  12.244  1.00  0.00     0.227 C 
HETATM   17  C   UNL     1      10.441   0.756   6.450  1.00  0.00     0.227 C 
HETATM   18  C   UNL     1       6.368  -2.818   7.794  1.00  0.00     0.227 C 
HETATM   19  C   UNL     1      10.517   0.240  11.176  1.00  0.00     0.250 C 
HETATM   20  C   UNL     1      11.620  -0.247   8.280  1.00  0.00     0.283 C 
HETATM   21  C   UNL     1       9.027   0.891   7.021  1.00  0.00     0.250 C 
HETATM   22  C   UNL     1       6.364  -2.863   9.329  1.00  0.00     0.250 C 
HETATM   23  C   UNL     1       8.426  -2.482  12.252  1.00  0.00     0.283 C 
HETATM   24  C   UNL     1       6.023  -0.429   7.468  1.00  0.00     0.283 C 
HETATM   25  C   UNL     1      12.010  -1.817  11.118  1.00  0.00     0.153 C 
HETATM   26  C   UNL     1       8.061  -0.033   4.863  1.00  0.00     0.153 C 
HETATM   27  C   UNL     1       8.831  -3.362   9.215  1.00  0.00     0.153 C 
ENDROOT
BRANCH  17  28
HETATM   28  C   UNL     1      10.745   1.899   5.492  1.00  0.00     0.016 C 
HETATM   29  C   UNL     1      11.753   2.867   6.110  1.00  0.00     0.012 C 
HETATM   30  C   UNL     1      11.266   1.362   4.160  1.00  0.00     0.012 C 
ENDBRANCH  17  28
BRANCH  13  31
HETATM   31  C   UNL     1      13.831  -0.291   9.439  1.00  0.00     0.014 C 
HETATM   32  C   UNL     1      14.008  -1.263   8.271  1.00  0.00     0.012 C 
BRANCH  31  33
HETATM   33  C   UNL     1      14.722   0.957   9.300  1.00  0.00     0.002 C 
HETATM   34  C   UNL     1      13.962   2.269   9.432  1.00  0.00     0.005 C 
ENDBRANCH  31  33
ENDBRANCH  13  31
BRANCH  14  35
HETATM   35  C   UNL     1       5.578   1.260   5.682  1.00  0.00     0.010 C 
HETATM   36  C   UNL     1       4.191   1.430   6.297  1.00  0.00     0.012 C 
HETATM   37  C   UNL     1       6.042   2.568   5.041  1.00  0.00     0.012 C 
ENDBRANCH  14  35
BRANCH  16  38
HETATM   38  C   UNL     1       8.715   0.560  12.918  1.00  0.00     0.016 C 
HETATM   39  C   UNL     1       8.766   0.407  14.437  1.00  0.00     0.012 C 
HETATM   40  C   UNL     1       7.287   0.374  12.409  1.00  0.00     0.012 C 
ENDBRANCH  16  38
BRANCH  18  41
HETATM   41  C   UNL     1       5.033  -3.249   7.187  1.00  0.00     0.016 C 
HETATM   42  C   UNL     1       4.784  -4.734   7.439  1.00  0.00     0.012 C 
HETATM   43  C   UNL     1       5.001  -2.945   5.691  1.00  0.00     0.012 C 
ENDBRANCH  18  41
BRANCH  15  44
HETATM   44  C   UNL     1       8.020  -4.892  11.678  1.00  0.00     0.010 C 
HETATM   45  C   UNL     1       7.097  -5.532  12.711  1.00  0.00     0.012 C 
HETATM   46  C   UNL     1       9.472  -4.947  12.144  1.00  0.00     0.012 C 
ENDBRANCH  15  44
TORSDOF 7
ENDMDL
MODEL 17
REMARK VINA RESULT:    -7.311      2.526      6.775
REMARK INTER + INTRA:          -7.784
REMARK INTER:                  -9.557
REMARK INTRA:                   1.772
REMARK UNBOUND:                 2.519
REMARK  7 active torsions:
REMARK  status: ('A' for Active; 'I' for Inactive)
REMARK    1  A    between atoms: C_13  and  C_14 
REMARK    2  A    between atoms: C_14  and  C_19 
REMARK    3  A    between atoms: C_15  and  C_20 
REMARK    4  A    between atoms: C_16  and  C_21 
REMARK    5  A    between atoms: C_17  and  C_23 
REMARK    6  A    between atoms: C_18  and  C_26 
REMARK    7  A    between atoms: C_22  and  C_28 
ROOT
HETATM    1  O   UNL     1       7.945   0.484   6.483  1.00  0.00    -0.304 OA
HETATM    2  O   UNL     1      12.249   1.107   9.378  1.00  0.00    -0.304 OA
HETATM    3  O   UNL     1       9.431  -2.546  10.406  1.00  0.00    -0.304 OA
HETATM    4  O   UNL     1       9.720   2.780   8.373  1.00  0.00    -0.270 OA
HETATM    5  O   UNL     1       9.904  -0.716   6.281  1.00  0.00    -0.263 OA
HETATM    6  O   UNL     1       7.986   0.504   9.074  1.00  0.00    -0.270 OA
HETATM    7  O   UNL     1      12.011  -1.827  12.232  1.00  0.00    -0.270 OA
HETATM    8  O   UNL     1      14.449   1.575   9.844  1.00  0.00    -0.263 OA
HETATM    9  O   UNL     1       9.063  -1.734  12.528  1.00  0.00    -0.263 OA
HETATM   10  N   UNL     1      11.048   1.850   6.713  1.00  0.00    -0.340 N 
HETATM   11  N   UNL     1       7.175  -1.636   9.408  1.00  0.00    -0.340 N 
HETATM   12  N   UNL     1      12.440  -1.501   9.969  1.00  0.00    -0.340 N 
HETATM   13  C   UNL     1       9.874   1.676   5.834  1.00  0.00     0.190 C 
HETATM   14  C   UNL     1       7.328  -1.487  10.871  1.00  0.00     0.190 C 
HETATM   15  C   UNL     1      13.631  -0.665  10.233  1.00  0.00     0.190 C 
HETATM   16  C   UNL     1      12.021   2.463   8.945  1.00  0.00     0.227 C 
HETATM   17  C   UNL     1       7.269  -0.635   7.097  1.00  0.00     0.227 C 
HETATM   18  C   UNL     1      10.702  -3.147  10.712  1.00  0.00     0.227 C 
HETATM   19  C   UNL     1      10.829   2.385   7.995  1.00  0.00     0.250 C 
HETATM   20  C   UNL     1       9.274   0.331   6.207  1.00  0.00     0.283 C 
HETATM   21  C   UNL     1       7.513  -0.537   8.605  1.00  0.00     0.250 C 
HETATM   22  C   UNL     1      11.768  -2.094  11.051  1.00  0.00     0.250 C 
HETATM   23  C   UNL     1      13.508   0.790   9.789  1.00  0.00     0.283 C 
HETATM   24  C   UNL     1       8.706  -1.916  11.369  1.00  0.00     0.283 C 
HETATM   25  C   UNL     1      12.354   1.419   6.205  1.00  0.00     0.153 C 
HETATM   26  C   UNL     1       6.719  -2.930   8.895  1.00  0.00     0.153 C 
HETATM   27  C   UNL     1      12.129  -1.815   8.574  1.00  0.00     0.153 C 
ENDROOT
BRANCH  17  28
HETATM   28  C   UNL     1       5.788  -0.482   6.781  1.00  0.00     0.016 C 
HETATM   29  C   UNL     1       5.510   0.879   6.146  1.00  0.00     0.012 C 
HETATM   30  C   UNL     1       5.312  -1.608   5.864  1.00  0.00     0.012 C 
ENDBRANCH  17  28
BRANCH  13  31
HETATM   31  C   UNL     1      10.147   1.733   4.335  1.00  0.00     0.014 C 
HETATM   32  C   UNL     1      10.410   0.325   3.801  1.00  0.00     0.012 C 
BRANCH  31  33
HETATM   33  C   UNL     1       8.974   2.422   3.614  1.00  0.00     0.002 C 
HETATM   34  C   UNL     1       8.344   1.571   2.520  1.00  0.00     0.005 C 
ENDBRANCH  31  33
ENDBRANCH  13  31
BRANCH  14  35
HETATM   35  C   UNL     1       6.243  -2.199  11.679  1.00  0.00     0.010 C 
HETATM   36  C   UNL     1       6.767  -2.590  13.059  1.00  0.00     0.012 C 
HETATM   37  C   UNL     1       5.000  -1.320  11.807  1.00  0.00     0.012 C 
ENDBRANCH  14  35
BRANCH  16  38
HETATM   38  C   UNL     1      11.713   3.322  10.168  1.00  0.00     0.016 C 
HETATM   39  C   UNL     1      12.960   4.078  10.624  1.00  0.00     0.012 C 
HETATM   40  C   UNL     1      11.162   2.464  11.305  1.00  0.00     0.012 C 
ENDBRANCH  16  38
BRANCH  18  41
HETATM   41  C   UNL     1      10.576  -4.227  11.786  1.00  0.00     0.016 C 
HETATM   42  C   UNL     1      11.822  -5.110  11.808  1.00  0.00     0.012 C 
HETATM   43  C   UNL     1       9.325  -5.070  11.554  1.00  0.00     0.012 C 
ENDBRANCH  18  41
BRANCH  15  44
HETATM   44  C   UNL     1      14.894  -1.299   9.648  1.00  0.00     0.010 C 
HETATM   45  C   UNL     1      16.101  -0.999  10.533  1.00  0.00     0.012 C 
HETATM   46  C   UNL     1      15.131  -0.801   8.226  1.00  0.00     0.012 C 
ENDBRANCH  15  44
TORSDOF 7
ENDMDL
MODEL 18
REMARK VINA RESULT:    -7.184      2.466      7.016
REMARK INTER + INTRA:          -7.605
REMARK INTER:                  -8.447
REMARK INTRA:                   0.842
REMARK UNBOUND:                 2.519
REMARK  7 active torsions:
REMARK  status: ('A' for Active; 'I' for Inactive)
REMARK    1  A    between atoms: C_13  and  C_14 
REMARK    2  A    between atoms: C_14  and  C_19 
REMARK    3  A    between atoms: C_15  and  C_20 
REMARK    4  A    between atoms: C_16  and  C_21 
REMARK    5  A    between atoms: C_17  and  C_23 
REMARK    6  A    between atoms: C_18  and  C_26 
REMARK    7  A    between atoms: C_22  and  C_28 
ROOT
HETATM    1  O   UNL     1      10.926   0.320   9.777  1.00  0.00    -0.304 OA
HETATM    2  O   UNL     1       6.529  -0.895  12.323  1.00  0.00    -0.304 OA
HETATM    3  O   UNL     1       6.574  -1.478   7.633  1.00  0.00    -0.304 OA
HETATM    4  O   UNL     1       8.602   1.521  12.047  1.00  0.00    -0.270 OA
HETATM    5  O   UNL     1      10.214  -1.805  10.321  1.00  0.00    -0.263 OA
HETATM    6  O   UNL     1       8.565   1.164   9.123  1.00  0.00    -0.270 OA
HETATM    7  O   UNL     1       3.876  -1.926   9.372  1.00  0.00    -0.270 OA
HETATM    8  O   UNL     1       5.207  -1.743  14.000  1.00  0.00    -0.263 OA
HETATM    9  O   UNL     1       4.856   0.032   7.375  1.00  0.00    -0.263 OA
HETATM   10  N   UNL     1       9.490  -0.507  12.744  1.00  0.00    -0.340 N 
HETATM   11  N   UNL     1       8.481   0.223   7.011  1.00  0.00    -0.340 N 
HETATM   12  N   UNL     1       5.762  -2.698  10.494  1.00  0.00    -0.340 N 
HETATM   13  C   UNL     1      10.770  -0.207  12.071  1.00  0.00     0.190 C 
HETATM   14  C   UNL     1       7.101   0.721   6.824  1.00  0.00     0.190 C 
HETATM   15  C   UNL     1       5.071  -2.733  11.800  1.00  0.00     0.190 C 
HETATM   16  C   UNL     1       7.096   0.080  13.221  1.00  0.00     0.227 C 
HETATM   17  C   UNL     1      10.591   0.127   8.386  1.00  0.00     0.227 C 
HETATM   18  C   UNL     1       5.726  -2.584   7.990  1.00  0.00     0.227 C 
HETATM   19  C   UNL     1       8.454   0.436  12.622  1.00  0.00     0.250 C 
HETATM   20  C   UNL     1      10.608  -0.690  10.639  1.00  0.00     0.283 C 
HETATM   21  C   UNL     1       9.128   0.547   8.213  1.00  0.00     0.250 C 
HETATM   22  C   UNL     1       5.031  -2.361   9.342  1.00  0.00     0.250 C 
HETATM   23  C   UNL     1       5.608  -1.754  12.840  1.00  0.00     0.283 C 
HETATM   24  C   UNL     1       6.045  -0.264   7.321  1.00  0.00     0.283 C 
HETATM   25  C   UNL     1       9.375  -1.781  13.462  1.00  0.00     0.153 C 
HETATM   26  C   UNL     1       9.061  -0.602   5.950  1.00  0.00     0.153 C 
HETATM   27  C   UNL     1       7.137  -3.196  10.443  1.00  0.00     0.153 C 
ENDROOT
BRANCH  17  28
HETATM   28  C   UNL     1      11.509   1.035   7.580  1.00  0.00     0.016 C 
HETATM   29  C   UNL     1      11.206   2.504   7.872  1.00  0.00     0.012 C 
HETATM   30  C   UNL     1      12.975   0.721   7.879  1.00  0.00     0.012 C 
ENDBRANCH  17  28
BRANCH  13  31
HETATM   31  C   UNL     1      12.015  -0.826  12.697  1.00  0.00     0.014 C 
HETATM   32  C   UNL     1      13.144  -0.878  11.666  1.00  0.00     0.012 C 
BRANCH  31  33
HETATM   33  C   UNL     1      12.413  -0.042  13.960  1.00  0.00     0.002 C 
HETATM   34  C   UNL     1      13.480  -0.732  14.798  1.00  0.00     0.005 C 
ENDBRANCH  31  33
ENDBRANCH  13  31
BRANCH  14  35
HETATM   35  C   UNL     1       6.785   1.133   5.386  1.00  0.00     0.010 C 
HETATM   36  C   UNL     1       5.567   0.375   4.862  1.00  0.00     0.012 C 
HETATM   37  C   UNL     1       6.556   2.641   5.295  1.00  0.00     0.012 C 
ENDBRANCH  14  35
BRANCH  16  38
HETATM   38  C   UNL     1       6.169   1.291  13.278  1.00  0.00     0.016 C 
HETATM   39  C   UNL     1       5.492   1.388  14.644  1.00  0.00     0.012 C 
HETATM   40  C   UNL     1       5.123   1.222  12.167  1.00  0.00     0.012 C 
ENDBRANCH  16  38
BRANCH  18  41
HETATM   41  C   UNL     1       4.744  -2.933   6.872  1.00  0.00     0.016 C 
HETATM   42  C   UNL     1       3.926  -4.168   7.242  1.00  0.00     0.012 C 
HETATM   43  C   UNL     1       5.487  -3.154   5.556  1.00  0.00     0.012 C 
ENDBRANCH  18  41
BRANCH  15  44
HETATM   44  C   UNL     1       5.030  -4.152  12.369  1.00  0.00     0.010 C 
HETATM   45  C   UNL     1       3.611  -4.518  12.793  1.00  0.00     0.012 C 
HETATM   46  C   UNL     1       5.994  -4.282  13.545  1.00  0.00     0.012 C 
ENDBRANCH  15  44
TORSDOF 7
ENDMDL
MODEL 19
REMARK VINA RESULT:    -7.072      3.245      7.315
REMARK INTER + INTRA:          -7.447
REMARK INTER:                  -8.638
REMARK INTRA:                   1.190
REMARK UNBOUND:                 2.519
REMARK  7 active torsions:
REMARK  status: ('A' for Active; 'I' for Inactive)
REMARK    1  A    between atoms: C_13  and  C_14 
REMARK    2  A    between atoms: C_14  and  C_19 
REMARK    3  A    between atoms: C_15  and  C_20 
REMARK    4  A    between atoms: C_16  and  C_21 
REMARK    5  A    between atoms: C_17  and  C_23 
REMARK    6  A    between atoms: C_18  and  C_26 
REMARK    7  A    between atoms: C_22  and  C_28 
ROOT
HETATM    1  O   UNL     1       6.773  -1.139   8.486  1.00  0.00    -0.304 OA
HETATM    2  O   UNL     1      11.579   0.542   9.657  1.00  0.00    -0.304 OA
HETATM    3  O   UNL     1      10.333  -3.754  11.183  1.00  0.00    -0.304 OA
HETATM    4  O   UNL     1       8.540   1.502   9.865  1.00  0.00    -0.270 OA
HETATM    5  O   UNL     1       8.727  -1.767   7.433  1.00  0.00    -0.263 OA
HETATM    6  O   UNL     1       7.806  -1.170  10.863  1.00  0.00    -0.270 OA
HETATM    7  O   UNL     1      13.166  -2.416  12.012  1.00  0.00    -0.270 OA
HETATM    8  O   UNL     1      13.609   1.570   9.339  1.00  0.00    -0.263 OA
HETATM    9  O   UNL     1      10.630  -3.120  13.375  1.00  0.00    -0.263 OA
HETATM   10  N   UNL     1       9.304   1.000   7.732  1.00  0.00    -0.340 N 
HETATM   11  N   UNL     1       7.720  -3.457  11.202  1.00  0.00    -0.340 N 
HETATM   12  N   UNL     1      12.598  -1.933   9.808  1.00  0.00    -0.340 N 
HETATM   13  C   UNL     1       7.959   0.540   7.329  1.00  0.00     0.190 C 
HETATM   14  C   UNL     1       8.385  -3.306  12.514  1.00  0.00     0.190 C 
HETATM   15  C   UNL     1      13.562  -0.817   9.719  1.00  0.00     0.190 C 
HETATM   16  C   UNL     1      10.887   1.798   9.510  1.00  0.00     0.227 C 
HETATM   17  C   UNL     1       6.673  -2.412   9.161  1.00  0.00     0.227 C 
HETATM   18  C   UNL     1      11.727  -4.001  10.925  1.00  0.00     0.227 C 
HETATM   19  C   UNL     1       9.476   1.427   9.061  1.00  0.00     0.250 C 
HETATM   20  C   UNL     1       7.888  -0.925   7.726  1.00  0.00     0.283 C 
HETATM   21  C   UNL     1       7.450  -2.288  10.475  1.00  0.00     0.250 C 
HETATM   22  C   UNL     1      12.557  -2.710  10.979  1.00  0.00     0.250 C 
HETATM   23  C   UNL     1      12.935   0.563   9.536  1.00  0.00     0.283 C 
HETATM   24  C   UNL     1       9.908  -3.364  12.415  1.00  0.00     0.283 C 
HETATM   25  C   UNL     1      10.374   0.946   6.731  1.00  0.00     0.153 C 
HETATM   26  C   UNL     1       7.423  -4.813  10.735  1.00  0.00     0.153 C 
HETATM   27  C   UNL     1      11.856  -2.286   8.597  1.00  0.00     0.153 C 
ENDROOT
BRANCH  17  28
HETATM   28  C   UNL     1       5.195  -2.653   9.431  1.00  0.00     0.016 C 
HETATM   29  C   UNL     1       4.445  -1.326   9.545  1.00  0.00     0.012 C 
HETATM   30  C   UNL     1       4.581  -3.522   8.335  1.00  0.00     0.012 C 
ENDBRANCH  17  28
BRANCH  13  31
HETATM   31  C   UNL     1       7.610   0.704   5.854  1.00  0.00     0.014 C 
HETATM   32  C   UNL     1       6.399  -0.163   5.508  1.00  0.00     0.012 C 
BRANCH  31  33
HETATM   33  C   UNL     1       7.375   2.191   5.532  1.00  0.00     0.002 C 
HETATM   34  C   UNL     1       6.345   2.424   4.437  1.00  0.00     0.005 C 
ENDBRANCH  31  33
ENDBRANCH  13  31
BRANCH  14  35
HETATM   35  C   UNL     1       7.900  -4.302  13.567  1.00  0.00     0.010 C 
HETATM   36  C   UNL     1       8.967  -5.358  13.845  1.00  0.00     0.012 C 
HETATM   37  C   UNL     1       7.515  -3.578  14.858  1.00  0.00     0.012 C 
ENDBRANCH  14  35
BRANCH  16  38
HETATM   38  C   UNL     1      10.880   2.514  10.857  1.00  0.00     0.016 C 
HETATM   39  C   UNL     1      11.954   3.601  10.896  1.00  0.00     0.012 C 
HETATM   40  C   UNL     1      11.085   1.519  11.998  1.00  0.00     0.012 C 
ENDBRANCH  16  38
BRANCH  18  41
HETATM   41  C   UNL     1      12.285  -5.101  11.828  1.00  0.00     0.016 C 
HETATM   42  C   UNL     1      13.788  -5.261  11.610  1.00  0.00     0.012 C 
HETATM   43  C   UNL     1      11.562  -6.421  11.574  1.00  0.00     0.012 C 
ENDBRANCH  18  41
BRANCH  15  44
HETATM   44  C   UNL     1      14.613  -1.075   8.639  1.00  0.00     0.010 C 
HETATM   45  C   UNL     1      14.433  -2.468   8.040  1.00  0.00     0.012 C 
HETATM   46  C   UNL     1      16.018  -0.912   9.211  1.00  0.00     0.012 C 
ENDBRANCH  15  44
TORSDOF 7
ENDMDL
MODEL 20
REMARK VINA RESULT:    -7.063      2.374      7.209
REMARK INTER + INTRA:          -7.434
REMARK INTER:                  -9.241
REMARK INTRA:                   1.806
REMARK UNBOUND:                 2.519
REMARK  7 active torsions:
REMARK  status: ('A' for Active; 'I' for Inactive)
REMARK    1  A    between atoms: C_13  and  C_14 
REMARK    2  A    between atoms: C_14  and  C_19 
REMARK    3  A    between atoms: C_15  and  C_20 
REMARK    4  A    between atoms: C_16  and  C_21 
REMARK    5  A    between atoms: C_17  and  C_23 
REMARK    6  A    between atoms: C_18  and  C_26 
REMARK    7  A    between atoms: C_22  and  C_28 
ROOT
HETATM    1  O   UNL     1       8.203  -3.366  10.698  1.00  0.00    -0.304 OA
HETATM    2  O   UNL     1       4.935   0.234   8.786  1.00  0.00    -0.304 OA
HETATM    3  O   UNL     1       9.391   0.265   7.207  1.00  0.00    -0.304 OA
HETATM    4  O   UNL     1       5.935  -0.908  11.597  1.00  0.00    -0.270 OA
HETATM    5  O   UNL     1       7.171  -3.426   8.636  1.00  0.00    -0.263 OA
HETATM    6  O   UNL     1       8.705  -0.825  10.600  1.00  0.00    -0.270 OA
HETATM    7  O   UNL     1       7.270   2.562   6.349  1.00  0.00    -0.270 OA
HETATM    8  O   UNL     1       2.972   1.105   7.970  1.00  0.00    -0.263 OA
HETATM    9  O   UNL     1       9.717   2.396   8.013  1.00  0.00    -0.263 OA
HETATM   10  N   UNL     1       4.975  -2.453  10.155  1.00  0.00    -0.340 N 
HETATM   11  N   UNL     1      10.566  -0.937   9.229  1.00  0.00    -0.340 N 
HETATM   12  N   UNL     1       6.267   0.466   6.471  1.00  0.00    -0.340 N 
HETATM   13  C   UNL     1       5.850  -3.522  10.677  1.00  0.00     0.190 C 
HETATM   14  C   UNL     1      10.670   0.538   9.220  1.00  0.00     0.190 C 
HETATM   15  C   UNL     1       4.903   1.032   6.518  1.00  0.00     0.190 C 
HETATM   16  C   UNL     1       4.322  -0.030  10.063  1.00  0.00     0.227 C 
HETATM   17  C   UNL     1       9.477  -3.035  10.103  1.00  0.00     0.227 C 
HETATM   18  C   UNL     1       8.721   0.679   6.003  1.00  0.00     0.227 C 
HETATM   19  C   UNL     1       5.146  -1.158  10.678  1.00  0.00     0.250 C 
HETATM   20  C   UNL     1       7.128  -3.447   9.859  1.00  0.00     0.283 C 
HETATM   21  C   UNL     1       9.542  -1.508   9.999  1.00  0.00     0.250 C 
HETATM   22  C   UNL     1       7.361   1.331   6.298  1.00  0.00     0.250 C 
HETATM   23  C   UNL     1       4.149   0.789   7.823  1.00  0.00     0.283 C 
HETATM   24  C   UNL     1       9.863   1.181   8.095  1.00  0.00     0.283 C 
HETATM   25  C   UNL     1       4.015  -2.804   9.104  1.00  0.00     0.153 C 
HETATM   26  C   UNL     1      11.512  -1.696   8.408  1.00  0.00     0.153 C 
HETATM   27  C   UNL     1       6.394  -0.991   6.426  1.00  0.00     0.153 C 
ENDROOT
BRANCH  17  28
HETATM   28  C   UNL     1      10.552  -3.556  11.045  1.00  0.00     0.016 C 
HETATM   29  C   UNL     1      10.156  -3.316  12.501  1.00  0.00     0.012 C 
HETATM   30  C   UNL     1      10.812  -5.041  10.799  1.00  0.00     0.012 C 
ENDBRANCH  17  28
BRANCH  13  31
HETATM   31  C   UNL     1       5.278  -4.935  10.632  1.00  0.00     0.014 C 
HETATM   32  C   UNL     1       6.408  -5.958  10.763  1.00  0.00     0.012 C 
BRANCH  31  33
HETATM   33  C   UNL     1       4.208  -5.104  11.725  1.00  0.00     0.002 C 
HETATM   34  C   UNL     1       4.533  -6.193  12.737  1.00  0.00     0.005 C 
ENDBRANCH  31  33
ENDBRANCH  13  31
BRANCH  14  35
HETATM   35  C   UNL     1      12.109   1.053   9.180  1.00  0.00     0.010 C 
HETATM   36  C   UNL     1      12.457   1.577   7.789  1.00  0.00     0.012 C 
HETATM   37  C   UNL     1      12.323   2.142  10.231  1.00  0.00     0.012 C 
ENDBRANCH  14  35
BRANCH  16  38
HETATM   38  C   UNL     1       4.385   1.240  10.908  1.00  0.00     0.016 C 
HETATM   39  C   UNL     1       5.703   1.311  11.677  1.00  0.00     0.012 C 
HETATM   40  C   UNL     1       3.200   1.306  11.870  1.00  0.00     0.012 C 
ENDBRANCH  16  38
BRANCH  18  41
HETATM   41  C   UNL     1       9.617   1.553   5.126  1.00  0.00     0.016 C 
HETATM   42  C   UNL     1       8.860   2.022   3.885  1.00  0.00     0.012 C 
HETATM   43  C   UNL     1      10.882   0.795   4.730  1.00  0.00     0.012 C 
ENDBRANCH  18  41
BRANCH  15  44
HETATM   44  C   UNL     1       4.068   0.571   5.323  1.00  0.00     0.010 C 
HETATM   45  C   UNL     1       4.860   0.723   4.027  1.00  0.00     0.012 C 
HETATM   46  C   UNL     1       2.760   1.353   5.251  1.00  0.00     0.012 C 
ENDBRANCH  15  44
TORSDOF 7
ENDMDL
