REMARK  8 active torsions:
REMARK  status: ('A' for Active; 'I' for Inactive)
REMARK    1  A    between atoms: C_13  and  C_15 
REMARK    2  A    between atoms: C_14  and  C_16 
REMARK    3  A    between atoms: C_15  and  C_22 
REMARK    4  A    between atoms: C_16  and  C_23 
REMARK    5  A    between atoms: C_17  and  C_21 
REMARK    6  A    between atoms: C_18  and  C_24 
REMARK    7  A    between atoms: C_19  and  C_27 
REMARK    8  A    between atoms: C_20  and  C_30 
ROOT
HETATM    1  O   UNL     1      -2.237   2.189  -0.230  1.00  0.00    -0.304 OA
HETATM    2  O   UNL     1       2.066   0.290   0.922  1.00  0.00    -0.304 OA
HETATM    3  O   UNL     1      -0.381  -2.513  -0.689  1.00  0.00    -0.304 OA
HETATM    4  O   UNL     1       0.026   1.343  -1.280  1.00  0.00    -0.270 OA
HETATM    5  O   UNL     1      -2.003   1.001   1.735  1.00  0.00    -0.263 OA
HETATM    6  O   UNL     1      -2.245  -1.027  -1.705  1.00  0.00    -0.270 OA
HETATM    7  O   UNL     1       4.300   0.594   0.459  1.00  0.00    -0.263 OA
HETATM    8  O   UNL     1       4.310  -2.010   2.172  1.00  0.00    -0.270 OA
HETATM    9  O   UNL     1       0.624  -4.013   0.747  1.00  0.00    -0.263 OA
HETATM   10  N   UNL     1       1.423   2.688  -0.007  1.00  0.00    -0.340 N 
HETATM   11  N   UNL     1      -3.369  -1.006   0.325  1.00  0.00    -0.340 N 
HETATM   12  N   UNL     1       3.047  -2.702   0.355  1.00  0.00    -0.340 N 
HETATM   13  C   UNL     1       2.642   2.053  -0.561  1.00  0.00     0.190 C 
HETATM   14  C   UNL     1      -3.746   0.409   0.140  1.00  0.00     0.190 C 
HETATM   15  C   UNL     1      -1.074   2.986   0.070  1.00  0.00     0.227 C 
HETATM   16  C   UNL     1       1.956  -2.484  -0.618  1.00  0.00     0.190 C 
HETATM   17  C   UNL     1      -1.708  -2.800  -0.198  1.00  0.00     0.227 C 
HETATM   18  C   UNL     1       2.259  -0.803   1.825  1.00  0.00     0.227 C 
HETATM   19  C   UNL     1       0.167   2.261  -0.464  1.00  0.00     0.250 C 
HETATM   20  C   UNL     1      -2.567   1.214   0.670  1.00  0.00     0.283 C 
HETATM   21  C   UNL     1      -2.479  -1.553  -0.611  1.00  0.00     0.250 C 
HETATM   22  C   UNL     1       3.127   0.930   0.356  1.00  0.00     0.283 C 
HETATM   23  C   UNL     1       3.308  -1.877   1.461  1.00  0.00     0.250 C 
HETATM   24  C   UNL     1       0.682  -3.120  -0.085  1.00  0.00     0.283 C 
HETATM   25  C   UNL     1       1.628   3.683   1.051  1.00  0.00     0.153 C 
HETATM   26  C   UNL     1      -3.817  -1.708   1.530  1.00  0.00     0.153 C 
HETATM   27  C   UNL     1       3.917  -3.860   0.148  1.00  0.00     0.153 C 
ENDROOT
BRANCH  15  28
HETATM   28  C   UNL     1      -1.251   4.319  -0.645  1.00  0.00     0.016 C 
HETATM   29  C   UNL     1      -1.868   4.112  -2.027  1.00  0.00     0.012 C 
HETATM   30  C   UNL     1      -2.111   5.268   0.188  1.00  0.00     0.012 C 
ENDBRANCH  15  28
BRANCH  14  31
HETATM   31  C   UNL     1      -5.029   0.866   0.821  1.00  0.00     0.014 C 
HETATM   32  C   UNL     1      -5.232   2.365   0.588  1.00  0.00     0.012 C 
BRANCH  31  33
HETATM   33  C   UNL     1      -6.262   0.089   0.327  1.00  0.00     0.002 C 
HETATM   34  C   UNL     1      -7.561   0.519   0.995  1.00  0.00     0.005 C 
ENDBRANCH  31  33
ENDBRANCH  14  31
BRANCH  13  35
HETATM   35  C   UNL     1       3.760   3.049  -0.866  1.00  0.00     0.014 C 
HETATM   36  C   UNL     1       4.946   2.319  -1.502  1.00  0.00     0.012 C 
BRANCH  35  37
HETATM   37  C   UNL     1       3.295   4.189  -1.790  1.00  0.00     0.002 C 
HETATM   38  C   UNL     1       2.793   3.709  -3.144  1.00  0.00     0.005 C 
ENDBRANCH  35  37
ENDBRANCH  13  35
BRANCH  17  39
HETATM   39  C   UNL     1      -2.268  -4.031  -0.887  1.00  0.00     0.016 C 
HETATM   40  C   UNL     1      -2.598  -3.726  -2.346  1.00  0.00     0.012 C 
HETATM   41  C   UNL     1      -3.506  -4.541  -0.152  1.00  0.00     0.012 C 
ENDBRANCH  17  39
BRANCH  18  42
HETATM   42  C   UNL     1       2.520  -0.214   3.212  1.00  0.00     0.016 C 
HETATM   43  C   UNL     1       3.651   0.813   3.159  1.00  0.00     0.012 C 
HETATM   44  C   UNL     1       1.250   0.418   3.778  1.00  0.00     0.012 C 
ENDBRANCH  18  42
BRANCH  16  45
HETATM   45  C   UNL     1       2.240  -2.987  -2.032  1.00  0.00     0.010 C 
HETATM   46  C   UNL     1       1.409  -2.216  -3.057  1.00  0.00     0.012 C 
HETATM   47  C   UNL     1       1.963  -4.486  -2.139  1.00  0.00     0.012 C 
ENDBRANCH  16  45
TORSDOF 8
