MODEL 1
REMARK VINA RESULT:    -8.029      0.000      0.000
REMARK INTER + INTRA:          -4.512
REMARK INTER:                  -5.018
REMARK INTRA:                   0.506
REMARK UNBOUND:                 7.741
REMARK  9 active torsions:
REMARK  status: ('A' for Active; 'I' for Inactive)
REMARK    1  A    between atoms: C_13  and  C_16 
REMARK    2  A    between atoms: C_14  and  C_17 
REMARK    3  A    between atoms: C_15  and  C_18 
REMARK    4  A    between atoms: C_16  and  C_22 
REMARK    5  A    between atoms: C_17  and  C_23 
REMARK    6  A    between atoms: C_18  and  C_24 
REMARK    7  A    between atoms: C_19  and  C_25 
REMARK    8  A    between atoms: C_20  and  C_26 
REMARK    9  A    between atoms: C_21  and  C_27 
ROOT
HETATM    1  O   UNL     1       9.470  -2.112  -0.157  1.00  0.00    -0.304 OA
HETATM    2  O   UNL     1      12.011  -1.184   4.139  1.00  0.00    -0.304 OA
HETATM    3  O   UNL     1      10.872  -5.320   1.890  1.00  0.00    -0.304 OA
HETATM    4  O   UNL     1      10.778  -0.182   0.978  1.00  0.00    -0.270 OA
HETATM    5  O   UNL     1       8.925  -7.593   0.178  1.00  0.00    -0.270 OA
HETATM    6  O   UNL     1      12.647  -2.685   2.070  1.00  0.00    -0.270 OA
HETATM    7  O   UNL     1       7.674  -3.440  -0.731  1.00  0.00    -0.263 OA
HETATM    8  O   UNL     1       9.896  -2.076   4.390  1.00  0.00    -0.263 OA
HETATM    9  O   UNL     1      11.902  -7.174   1.000  1.00  0.00    -0.263 OA
HETATM   10  N   UNL     1       9.154  -0.020   2.627  1.00  0.00    -0.340 N 
HETATM   11  N   UNL     1       9.399  -5.614  -0.935  1.00  0.00    -0.340 N 
HETATM   12  N   UNL     1      13.029  -4.634   3.271  1.00  0.00    -0.340 N 
HETATM   13  C   UNL     1      10.180   0.231   3.659  1.00  0.00     0.190 C 
HETATM   14  C   UNL     1       9.968  -4.250  -0.960  1.00  0.00     0.190 C 
HETATM   15  C   UNL     1      13.240  -5.426   2.037  1.00  0.00     0.190 C 
HETATM   16  C   UNL     1       8.637  -1.087   0.426  1.00  0.00     0.227 C 
HETATM   17  C   UNL     1      12.622  -2.450   4.453  1.00  0.00     0.227 C 
HETATM   18  C   UNL     1       9.539  -5.741   1.586  1.00  0.00     0.227 C 
HETATM   19  C   UNL     1       9.612  -0.367   1.347  1.00  0.00     0.250 C 
HETATM   20  C   UNL     1       9.277  -6.407   0.218  1.00  0.00     0.250 C 
HETATM   21  C   UNL     1      12.762  -3.261   3.159  1.00  0.00     0.250 C 
HETATM   22  C   UNL     1       8.876  -3.249  -0.619  1.00  0.00     0.283 C 
HETATM   23  C   UNL     1      10.644  -1.147   4.110  1.00  0.00     0.283 C 
HETATM   24  C   UNL     1      11.942  -6.114   1.611  1.00  0.00     0.283 C 
HETATM   25  C   UNL     1       7.743  -0.036   3.018  1.00  0.00     0.153 C 
HETATM   26  C   UNL     1       8.930  -6.176  -2.202  1.00  0.00     0.153 C 
HETATM   27  C   UNL     1      13.046  -5.378   4.534  1.00  0.00     0.153 C 
ENDROOT
BRANCH  16  28
HETATM   28  C   UNL     1       8.124  -0.150  -0.653  1.00  0.00     0.016 C 
HETATM   29  C   UNL     1       8.770   1.228  -0.521  1.00  0.00     0.012 C 
HETATM   30  C   UNL     1       6.602  -0.036  -0.589  1.00  0.00     0.012 C 
ENDBRANCH  16  28
BRANCH  14  31
HETATM   31  C   UNL     1      10.647  -3.858  -2.271  1.00  0.00     0.014 C 
HETATM   32  C   UNL     1       9.914  -2.670  -2.898  1.00  0.00     0.012 C 
BRANCH  31  33
HETATM   33  C   UNL     1      12.134  -3.511  -2.078  1.00  0.00     0.002 C 
HETATM   34  C   UNL     1      13.003  -4.716  -1.747  1.00  0.00     0.005 C 
ENDBRANCH  31  33
ENDBRANCH  14  31
BRANCH  13  35
HETATM   35  C   UNL     1       9.744   1.050   4.866  1.00  0.00     0.014 C 
HETATM   36  C   UNL     1      10.544   0.621   6.099  1.00  0.00     0.012 C 
BRANCH  35  37
HETATM   37  C   UNL     1       9.907   2.563   4.641  1.00  0.00     0.002 C 
HETATM   38  C   UNL     1      11.217   3.121   5.180  1.00  0.00     0.005 C 
ENDBRANCH  35  37
ENDBRANCH  13  35
BRANCH  18  39
HETATM   39  C   UNL     1       9.060  -6.625   2.739  1.00  0.00     0.016 C 
HETATM   40  C   UNL     1       9.480  -6.030   4.081  1.00  0.00     0.012 C 
HETATM   41  C   UNL     1       7.545  -6.806   2.683  1.00  0.00     0.012 C 
ENDBRANCH  18  39
BRANCH  17  42
HETATM   42  C   UNL     1      13.997  -2.150   5.034  1.00  0.00     0.016 C 
HETATM   43  C   UNL     1      13.938  -2.091   6.560  1.00  0.00     0.012 C 
HETATM   44  C   UNL     1      14.548  -0.841   4.469  1.00  0.00     0.012 C 
ENDBRANCH  17  42
BRANCH  15  45
HETATM   45  C   UNL     1      14.392  -6.423   2.144  1.00  0.00     0.014 C 
HETATM   46  C   UNL     1      13.908  -7.714   2.814  1.00  0.00     0.012 C 
BRANCH  45  47
HETATM   47  C   UNL     1      15.018  -6.754   0.775  1.00  0.00     0.002 C 
HETATM   48  C   UNL     1      15.072  -8.245   0.478  1.00  0.00     0.005 C 
ENDBRANCH  45  47
ENDBRANCH  15  45
TORSDOF 9
ENDMDL
MODEL 2
REMARK VINA RESULT:    -7.792      2.196      6.840
REMARK INTER + INTRA:          -4.150
REMARK INTER:                  -5.211
REMARK INTRA:                   1.060
REMARK UNBOUND:                 7.741
REMARK  9 active torsions:
REMARK  status: ('A' for Active; 'I' for Inactive)
REMARK    1  A    between atoms: C_13  and  C_16 
REMARK    2  A    between atoms: C_14  and  C_17 
REMARK    3  A    between atoms: C_15  and  C_18 
REMARK    4  A    between atoms: C_16  and  C_22 
REMARK    5  A    between atoms: C_17  and  C_23 
REMARK    6  A    between atoms: C_18  and  C_24 
REMARK    7  A    between atoms: C_19  and  C_25 
REMARK    8  A    between atoms: C_20  and  C_26 
REMARK    9  A    between atoms: C_21  and  C_27 
ROOT
HETATM    1  O   UNL     1       9.438  -1.173  -0.199  1.00  0.00    -0.304 OA
HETATM    2  O   UNL     1      11.382  -5.651   1.194  1.00  0.00    -0.304 OA
HETATM    3  O   UNL     1      13.069  -1.130   1.607  1.00  0.00    -0.304 OA
HETATM    4  O   UNL     1       8.644  -3.584   0.329  1.00  0.00    -0.270 OA
HETATM    5  O   UNL     1      13.790   2.108   0.667  1.00  0.00    -0.270 OA
HETATM    6  O   UNL     1      11.080  -3.421   2.564  1.00  0.00    -0.270 OA
HETATM    7  O   UNL     1      10.195   0.611  -1.449  1.00  0.00    -0.263 OA
HETATM    8  O   UNL     1      12.385  -4.636  -0.621  1.00  0.00    -0.263 OA
HETATM    9  O   UNL     1      13.779   0.337   3.231  1.00  0.00    -0.263 OA
HETATM   10  N   UNL     1       9.747  -4.383  -1.549  1.00  0.00    -0.340 N 
HETATM   11  N   UNL     1      11.540   1.560   0.795  1.00  0.00    -0.340 N 
HETATM   12  N   UNL     1      13.296  -3.219   3.224  1.00  0.00    -0.340 N 
HETATM   13  C   UNL     1      10.159  -5.605  -0.828  1.00  0.00     0.190 C 
HETATM   14  C   UNL     1      10.460   0.568   0.980  1.00  0.00     0.190 C 
HETATM   15  C   UNL     1      13.053  -1.900   3.853  1.00  0.00     0.190 C 
HETATM   16  C   UNL     1       9.128  -1.969  -1.363  1.00  0.00     0.227 C 
HETATM   17  C   UNL     1      12.484  -5.292   2.051  1.00  0.00     0.227 C 
HETATM   18  C   UNL     1      13.291  -0.240   0.508  1.00  0.00     0.227 C 
HETATM   19  C   UNL     1       9.122  -3.381  -0.793  1.00  0.00     0.250 C 
HETATM   20  C   UNL     1      12.903   1.245   0.681  1.00  0.00     0.250 C 
HETATM   21  C   UNL     1      12.221  -3.897   2.628  1.00  0.00     0.250 C 
HETATM   22  C   UNL     1      10.029   0.043  -0.380  1.00  0.00     0.283 C 
HETATM   23  C   UNL     1      11.448  -5.232  -0.106  1.00  0.00     0.283 C 
HETATM   24  C   UNL     1      13.390  -0.770   2.881  1.00  0.00     0.283 C 
HETATM   25  C   UNL     1      10.133  -4.224  -2.952  1.00  0.00     0.153 C 
HETATM   26  C   UNL     1      11.158   2.971   0.726  1.00  0.00     0.153 C 
HETATM   27  C   UNL     1      14.685  -3.689   3.208  1.00  0.00     0.153 C 
ENDROOT
BRANCH  16  28
HETATM   28  C   UNL     1       7.758  -1.600  -1.902  1.00  0.00     0.016 C 
HETATM   29  C   UNL     1       6.960  -0.821  -0.858  1.00  0.00     0.012 C 
HETATM   30  C   UNL     1       6.995  -2.850  -2.336  1.00  0.00     0.012 C 
ENDBRANCH  16  28
BRANCH  14  31
HETATM   31  C   UNL     1       9.245   1.073   1.756  1.00  0.00     0.014 C 
HETATM   32  C   UNL     1       8.172   1.558   0.779  1.00  0.00     0.012 C 
BRANCH  31  33
HETATM   33  C   UNL     1       8.656  -0.003   2.685  1.00  0.00     0.002 C 
HETATM   34  C   UNL     1       9.550  -0.341   3.869  1.00  0.00     0.005 C 
ENDBRANCH  31  33
ENDBRANCH  14  31
BRANCH  13  35
HETATM   35  C   UNL     1      10.384  -6.851  -1.673  1.00  0.00     0.014 C 
HETATM   36  C   UNL     1      11.516  -7.688  -1.072  1.00  0.00     0.012 C 
BRANCH  35  37
HETATM   37  C   UNL     1       9.114  -7.710  -1.804  1.00  0.00     0.002 C 
HETATM   38  C   UNL     1       7.977  -7.256  -0.898  1.00  0.00     0.005 C 
ENDBRANCH  35  37
ENDBRANCH  13  35
BRANCH  18  39
HETATM   39  C   UNL     1      14.752  -0.390   0.081  1.00  0.00     0.016 C 
HETATM   40  C   UNL     1      15.075  -1.852  -0.220  1.00  0.00     0.012 C 
HETATM   41  C   UNL     1      15.048   0.487  -1.135  1.00  0.00     0.012 C 
ENDBRANCH  18  39
BRANCH  17  42
HETATM   42  C   UNL     1      12.532  -6.322   3.170  1.00  0.00     0.016 C 
HETATM   43  C   UNL     1      13.364  -7.535   2.753  1.00  0.00     0.012 C 
HETATM   44  C   UNL     1      11.122  -6.754   3.569  1.00  0.00     0.012 C 
ENDBRANCH  17  42
BRANCH  15  45
HETATM   45  C   UNL     1      13.772  -1.723   5.188  1.00  0.00     0.014 C 
HETATM   46  C   UNL     1      13.111  -0.601   5.996  1.00  0.00     0.012 C 
BRANCH  45  47
HETATM   47  C   UNL     1      13.796  -3.017   6.024  1.00  0.00     0.002 C 
HETATM   48  C   UNL     1      13.851  -2.769   7.524  1.00  0.00     0.005 C 
ENDBRANCH  45  47
ENDBRANCH  15  45
TORSDOF 9
ENDMDL
MODEL 3
REMARK VINA RESULT:    -7.784      1.810      6.390
REMARK INTER + INTRA:          -4.138
REMARK INTER:                  -5.949
REMARK INTRA:                   1.811
REMARK UNBOUND:                 7.741
REMARK  9 active torsions:
REMARK  status: ('A' for Active; 'I' for Inactive)
REMARK    1  A    between atoms: C_13  and  C_16 
REMARK    2  A    between atoms: C_14  and  C_17 
REMARK    3  A    between atoms: C_15  and  C_18 
REMARK    4  A    between atoms: C_16  and  C_22 
REMARK    5  A    between atoms: C_17  and  C_23 
REMARK    6  A    between atoms: C_18  and  C_24 
REMARK    7  A    between atoms: C_19  and  C_25 
REMARK    8  A    between atoms: C_20  and  C_26 
REMARK    9  A    between atoms: C_21  and  C_27 
ROOT
HETATM    1  O   UNL     1      12.104  -5.836   2.507  1.00  0.00    -0.304 OA
HETATM    2  O   UNL     1      11.716  -1.229   4.603  1.00  0.00    -0.304 OA
HETATM    3  O   UNL     1      11.701  -2.687  -0.016  1.00  0.00    -0.304 OA
HETATM    4  O   UNL     1      11.451  -4.752   4.770  1.00  0.00    -0.270 OA
HETATM    5  O   UNL     1      12.671  -4.463  -2.807  1.00  0.00    -0.270 OA
HETATM    6  O   UNL     1      10.218  -2.408   2.785  1.00  0.00    -0.270 OA
HETATM    7  O   UNL     1      13.450  -6.780   0.889  1.00  0.00    -0.263 OA
HETATM    8  O   UNL     1      13.715  -1.690   3.544  1.00  0.00    -0.263 OA
HETATM    9  O   UNL     1      10.361  -2.586  -1.884  1.00  0.00    -0.263 OA
HETATM   10  N   UNL     1      13.636  -4.036   5.084  1.00  0.00    -0.340 N 
HETATM   11  N   UNL     1      11.782  -5.708  -1.065  1.00  0.00    -0.340 N 
HETATM   12  N   UNL     1      10.376  -0.731   1.189  1.00  0.00    -0.340 N 
HETATM   13  C   UNL     1      13.169  -2.761   5.664  1.00  0.00     0.190 C 
HETATM   14  C   UNL     1      11.277  -5.816   0.320  1.00  0.00     0.190 C 
HETATM   15  C   UNL     1       9.636  -1.532   0.186  1.00  0.00     0.190 C 
HETATM   16  C   UNL     1      13.122  -5.924   3.528  1.00  0.00     0.227 C 
HETATM   17  C   UNL     1      11.288  -0.392   3.510  1.00  0.00     0.227 C 
HETATM   18  C   UNL     1      12.760  -3.416  -0.644  1.00  0.00     0.227 C 
HETATM   19  C   UNL     1      12.659  -4.878   4.533  1.00  0.00     0.250 C 
HETATM   20  C   UNL     1      12.387  -4.563  -1.608  1.00  0.00     0.250 C 
HETATM   21  C   UNL     1      10.585  -1.271   2.468  1.00  0.00     0.250 C 
HETATM   22  C   UNL     1      12.421  -6.219   1.237  1.00  0.00     0.283 C 
HETATM   23  C   UNL     1      12.933  -1.840   4.473  1.00  0.00     0.283 C 
HETATM   24  C   UNL     1      10.606  -2.288  -0.722  1.00  0.00     0.283 C 
HETATM   25  C   UNL     1      15.075  -4.288   4.987  1.00  0.00     0.153 C 
HETATM   26  C   UNL     1      11.641  -6.879  -1.930  1.00  0.00     0.153 C 
HETATM   27  C   UNL     1      10.905   0.558   0.734  1.00  0.00     0.153 C 
ENDROOT
BRANCH  16  28
HETATM   28  C   UNL     1      13.122  -7.307   4.152  1.00  0.00     0.016 C 
HETATM   29  C   UNL     1      13.925  -8.285   3.296  1.00  0.00     0.012 C 
HETATM   30  C   UNL     1      11.693  -7.812   4.344  1.00  0.00     0.012 C 
ENDBRANCH  16  28
BRANCH  14  31
HETATM   31  C   UNL     1      10.097  -6.768   0.506  1.00  0.00     0.014 C 
HETATM   32  C   UNL     1       9.362  -6.433   1.806  1.00  0.00     0.012 C 
BRANCH  31  33
HETATM   33  C   UNL     1       9.115  -6.719  -0.677  1.00  0.00     0.002 C 
HETATM   34  C   UNL     1       8.158  -5.537  -0.626  1.00  0.00     0.005 C 
ENDBRANCH  31  33
ENDBRANCH  14  31
BRANCH  13  35
HETATM   35  C   UNL     1      14.101  -2.085   6.660  1.00  0.00     0.014 C 
HETATM   36  C   UNL     1      14.015  -0.565   6.502  1.00  0.00     0.012 C 
BRANCH  35  37
HETATM   37  C   UNL     1      13.789  -2.476   8.116  1.00  0.00     0.002 C 
HETATM   38  C   UNL     1      12.773  -1.560   8.787  1.00  0.00     0.005 C 
ENDBRANCH  35  37
ENDBRANCH  13  35
BRANCH  18  39
HETATM   39  C   UNL     1      13.684  -2.399  -1.316  1.00  0.00     0.016 C 
HETATM   40  C   UNL     1      13.771  -1.121  -0.485  1.00  0.00     0.012 C 
HETATM   41  C   UNL     1      15.074  -2.996  -1.529  1.00  0.00     0.012 C 
ENDBRANCH  18  39
BRANCH  17  42
HETATM   42  C   UNL     1      10.311   0.625   4.082  1.00  0.00     0.016 C 
HETATM   43  C   UNL     1      10.915   1.330   5.296  1.00  0.00     0.012 C 
HETATM   44  C   UNL     1       8.990  -0.046   4.457  1.00  0.00     0.012 C 
ENDBRANCH  17  42
BRANCH  15  45
HETATM   45  C   UNL     1       8.634  -0.712  -0.625  1.00  0.00     0.014 C 
HETATM   46  C   UNL     1       7.816  -1.635  -1.536  1.00  0.00     0.012 C 
BRANCH  45  47
HETATM   47  C   UNL     1       7.683   0.111   0.265  1.00  0.00     0.002 C 
HETATM   48  C   UNL     1       6.341   0.402  -0.388  1.00  0.00     0.005 C 
ENDBRANCH  45  47
ENDBRANCH  15  45
TORSDOF 9
ENDMDL
MODEL 4
REMARK VINA RESULT:    -7.562      1.779      6.558
REMARK INTER + INTRA:          -3.799
REMARK INTER:                  -5.735
REMARK INTRA:                   1.937
REMARK UNBOUND:                 7.741
REMARK  9 active torsions:
REMARK  status: ('A' for Active; 'I' for Inactive)
REMARK    1  A    between atoms: C_13  and  C_16 
REMARK    2  A    between atoms: C_14  and  C_17 
REMARK    3  A    between atoms: C_15  and  C_18 
REMARK    4  A    between atoms: C_16  and  C_22 
REMARK    5  A    between atoms: C_17  and  C_23 
REMARK    6  A    between atoms: C_18  and  C_24 
REMARK    7  A    between atoms: C_19  and  C_25 
REMARK    8  A    between atoms: C_20  and  C_26 
REMARK    9  A    between atoms: C_21  and  C_27 
ROOT
HETATM    1  O   UNL     1      11.879  -5.208   2.187  1.00  0.00    -0.304 OA
HETATM    2  O   UNL     1      11.738  -1.132   5.210  1.00  0.00    -0.304 OA
HETATM    3  O   UNL     1      11.301  -1.609   0.410  1.00  0.00    -0.304 OA
HETATM    4  O   UNL     1      11.440  -4.616   4.673  1.00  0.00    -0.270 OA
HETATM    5  O   UNL     1      12.001  -2.769  -2.761  1.00  0.00    -0.270 OA
HETATM    6  O   UNL     1      10.072  -1.920   3.327  1.00  0.00    -0.270 OA
HETATM    7  O   UNL     1      13.066  -5.793   0.298  1.00  0.00    -0.263 OA
HETATM    8  O   UNL     1      13.631  -1.357   3.907  1.00  0.00    -0.263 OA
HETATM    9  O   UNL     1       9.806  -1.132  -1.273  1.00  0.00    -0.263 OA
HETATM   10  N   UNL     1      13.653  -3.971   4.934  1.00  0.00    -0.340 N 
HETATM   11  N   UNL     1      11.250  -4.350  -1.240  1.00  0.00    -0.340 N 
HETATM   12  N   UNL     1      10.113   0.050   2.102  1.00  0.00    -0.340 N 
HETATM   13  C   UNL     1      13.257  -2.843   5.802  1.00  0.00     0.190 C 
HETATM   14  C   UNL     1      10.866  -4.743   0.132  1.00  0.00     0.190 C 
HETATM   15  C   UNL     1       9.278  -0.530   1.025  1.00  0.00     0.190 C 
HETATM   16  C   UNL     1      12.980  -5.500   3.075  1.00  0.00     0.227 C 
HETATM   17  C   UNL     1      11.228  -0.091   4.353  1.00  0.00     0.227 C 
HETATM   18  C   UNL     1      12.292  -2.189  -0.445  1.00  0.00     0.227 C 
HETATM   19  C   UNL     1      12.620  -4.685   4.310  1.00  0.00     0.250 C 
HETATM   20  C   UNL     1      11.821  -3.116  -1.587  1.00  0.00     0.250 C 
HETATM   21  C   UNL     1      10.425  -0.739   3.219  1.00  0.00     0.250 C 
HETATM   22  C   UNL     1      12.079  -5.321   0.843  1.00  0.00     0.283 C 
HETATM   23  C   UNL     1      12.930  -1.699   4.851  1.00  0.00     0.283 C 
HETATM   24  C   UNL     1      10.155  -1.079  -0.100  1.00  0.00     0.283 C 
HETATM   25  C   UNL     1      15.075  -4.190   4.661  1.00  0.00     0.153 C 
HETATM   26  C   UNL     1      11.018  -5.319  -2.311  1.00  0.00     0.153 C 
HETATM   27  C   UNL     1      10.619   1.408   1.876  1.00  0.00     0.153 C 
ENDROOT
BRANCH  16  28
HETATM   28  C   UNL     1      13.016  -6.982   3.399  1.00  0.00     0.016 C 
HETATM   29  C   UNL     1      11.949  -7.332   4.435  1.00  0.00     0.012 C 
HETATM   30  C   UNL     1      14.400  -7.392   3.898  1.00  0.00     0.012 C 
ENDBRANCH  16  28
BRANCH  14  31
HETATM   31  C   UNL     1       9.693  -5.718   0.221  1.00  0.00     0.014 C 
HETATM   32  C   UNL     1       9.477  -6.136   1.678  1.00  0.00     0.012 C 
BRANCH  31  33
HETATM   33  C   UNL     1       8.394  -5.124  -0.350  1.00  0.00     0.002 C 
HETATM   34  C   UNL     1       7.440  -6.171  -0.909  1.00  0.00     0.005 C 
ENDBRANCH  31  33
ENDBRANCH  14  31
BRANCH  13  35
HETATM   35  C   UNL     1      14.280  -2.383   6.830  1.00  0.00     0.014 C 
HETATM   36  C   UNL     1      14.275  -0.855   6.919  1.00  0.00     0.012 C 
BRANCH  35  37
HETATM   37  C   UNL     1      14.027  -2.986   8.223  1.00  0.00     0.002 C 
HETATM   38  C   UNL     1      13.152  -2.114   9.113  1.00  0.00     0.005 C 
ENDBRANCH  35  37
ENDBRANCH  13  35
BRANCH  18  39
HETATM   39  C   UNL     1      13.168  -1.051  -0.973  1.00  0.00     0.016 C 
HETATM   40  C   UNL     1      13.190   0.112   0.016  1.00  0.00     0.012 C 
HETATM   41  C   UNL     1      14.586  -1.550  -1.248  1.00  0.00     0.012 C 
ENDBRANCH  18  39
BRANCH  17  42
HETATM   42  C   UNL     1      10.319   0.782   5.206  1.00  0.00     0.016 C 
HETATM   43  C   UNL     1      11.112   1.915   5.856  1.00  0.00     0.012 C 
HETATM   44  C   UNL     1       9.611  -0.054   6.272  1.00  0.00     0.012 C 
ENDBRANCH  17  42
BRANCH  15  45
HETATM   45  C   UNL     1       8.221   0.435   0.490  1.00  0.00     0.014 C 
HETATM   46  C   UNL     1       8.851   1.392  -0.527  1.00  0.00     0.012 C 
BRANCH  45  47
HETATM   47  C   UNL     1       7.027  -0.294  -0.156  1.00  0.00     0.002 C 
HETATM   48  C   UNL     1       5.849   0.620  -0.456  1.00  0.00     0.005 C 
ENDBRANCH  45  47
ENDBRANCH  15  45
TORSDOF 9
ENDMDL
MODEL 5
REMARK VINA RESULT:    -7.430      2.290      7.204
REMARK INTER + INTRA:          -3.598
REMARK INTER:                  -4.473
REMARK INTRA:                   0.875
REMARK UNBOUND:                 7.741
REMARK  9 active torsions:
REMARK  status: ('A' for Active; 'I' for Inactive)
REMARK    1  A    between atoms: C_13  and  C_16 
REMARK    2  A    between atoms: C_14  and  C_17 
REMARK    3  A    between atoms: C_15  and  C_18 
REMARK    4  A    between atoms: C_16  and  C_22 
REMARK    5  A    between atoms: C_17  and  C_23 
REMARK    6  A    between atoms: C_18  and  C_24 
REMARK    7  A    between atoms: C_19  and  C_25 
REMARK    8  A    between atoms: C_20  and  C_26 
REMARK    9  A    between atoms: C_21  and  C_27 
ROOT
HETATM    1  O   UNL     1       9.869  -1.351  -0.341  1.00  0.00    -0.304 OA
HETATM    2  O   UNL     1      12.641  -4.431   2.591  1.00  0.00    -0.304 OA
HETATM    3  O   UNL     1      12.511   0.394   2.194  1.00  0.00    -0.304 OA
HETATM    4  O   UNL     1       9.796  -3.767   0.596  1.00  0.00    -0.270 OA
HETATM    5  O   UNL     1      12.375   3.467   0.637  1.00  0.00    -0.270 OA
HETATM    6  O   UNL     1      11.200  -2.318   3.220  1.00  0.00    -0.270 OA
HETATM    7  O   UNL     1      10.346   0.372  -1.799  1.00  0.00    -0.263 OA
HETATM    8  O   UNL     1      13.771  -3.396   0.864  1.00  0.00    -0.263 OA
HETATM    9  O   UNL     1      12.140   2.253   3.498  1.00  0.00    -0.263 OA
HETATM   10  N   UNL     1      11.636  -4.347  -0.693  1.00  0.00    -0.340 N 
HETATM   11  N   UNL     1      10.516   2.106   0.370  1.00  0.00    -0.340 N 
HETATM   12  N   UNL     1      12.893  -1.162   4.307  1.00  0.00    -0.340 N 
HETATM   13  C   UNL     1      12.179  -5.182   0.399  1.00  0.00     0.190 C 
HETATM   14  C   UNL     1       9.827   0.811   0.548  1.00  0.00     0.190 C 
HETATM   15  C   UNL     1      12.040   0.035   4.494  1.00  0.00     0.190 C 
HETATM   16  C   UNL     1      10.226  -2.373  -1.296  1.00  0.00     0.227 C 
HETATM   17  C   UNL     1      13.230  -3.541   3.559  1.00  0.00     0.227 C 
HETATM   18  C   UNL     1      12.760   1.119   0.986  1.00  0.00     0.227 C 
HETATM   19  C   UNL     1      10.509  -3.568  -0.395  1.00  0.00     0.250 C 
HETATM   20  C   UNL     1      11.869   2.339   0.667  1.00  0.00     0.250 C 
HETATM   21  C   UNL     1      12.350  -2.290   3.673  1.00  0.00     0.250 C 
HETATM   22  C   UNL     1      10.048  -0.044  -0.689  1.00  0.00     0.283 C 
HETATM   23  C   UNL     1      12.972  -4.226   1.280  1.00  0.00     0.283 C 
HETATM   24  C   UNL     1      12.272   1.043   3.368  1.00  0.00     0.283 C 
HETATM   25  C   UNL     1      12.370  -4.267  -1.957  1.00  0.00     0.153 C 
HETATM   26  C   UNL     1       9.731   3.225  -0.153  1.00  0.00     0.153 C 
HETATM   27  C   UNL     1      14.288  -1.044   4.743  1.00  0.00     0.153 C 
ENDROOT
BRANCH  16  28
HETATM   28  C   UNL     1       9.057  -2.661  -2.220  1.00  0.00     0.016 C 
HETATM   29  C   UNL     1       7.775  -2.873  -1.417  1.00  0.00     0.012 C 
HETATM   30  C   UNL     1       9.348  -3.878  -3.096  1.00  0.00     0.012 C 
ENDBRANCH  16  28
BRANCH  14  31
HETATM   31  C   UNL     1       8.334   0.910   0.856  1.00  0.00     0.014 C 
HETATM   32  C   UNL     1       7.525   0.638  -0.415  1.00  0.00     0.012 C 
BRANCH  31  33
HETATM   33  C   UNL     1       7.900  -0.060   1.969  1.00  0.00     0.002 C 
HETATM   34  C   UNL     1       8.659   0.132   3.274  1.00  0.00     0.005 C 
ENDBRANCH  31  33
ENDBRANCH  14  31
BRANCH  13  35
HETATM   35  C   UNL     1      13.059  -6.353  -0.014  1.00  0.00     0.014 C 
HETATM   36  C   UNL     1      13.705  -6.978   1.226  1.00  0.00     0.012 C 
BRANCH  35  37
HETATM   37  C   UNL     1      12.282  -7.428  -0.794  1.00  0.00     0.002 C 
HETATM   38  C   UNL     1      13.166  -8.536  -1.349  1.00  0.00     0.005 C 
ENDBRANCH  35  37
ENDBRANCH  13  35
BRANCH  18  39
HETATM   39  C   UNL     1      14.244   1.491   0.969  1.00  0.00     0.016 C 
HETATM   40  C   UNL     1      15.075   0.412   1.660  1.00  0.00     0.012 C 
HETATM   41  C   UNL     1      14.727   1.706  -0.464  1.00  0.00     0.012 C 
ENDBRANCH  18  39
BRANCH  17  42
HETATM   42  C   UNL     1      13.260  -4.283   4.888  1.00  0.00     0.016 C 
HETATM   43  C   UNL     1      14.690  -4.681   5.252  1.00  0.00     0.012 C 
HETATM   44  C   UNL     1      12.358  -5.516   4.839  1.00  0.00     0.012 C 
ENDBRANCH  17  42
BRANCH  15  45
HETATM   45  C   UNL     1      12.198   0.685   5.867  1.00  0.00     0.014 C 
HETATM   46  C   UNL     1      11.263   1.894   5.986  1.00  0.00     0.012 C 
BRANCH  45  47
HETATM   47  C   UNL     1      11.923  -0.298   7.022  1.00  0.00     0.002 C 
HETATM   48  C   UNL     1      12.396   0.210   8.375  1.00  0.00     0.005 C 
ENDBRANCH  45  47
ENDBRANCH  15  45
TORSDOF 9
ENDMDL
MODEL 6
REMARK VINA RESULT:    -7.071      1.982      6.333
REMARK INTER + INTRA:          -3.051
REMARK INTER:                  -4.691
REMARK INTRA:                   1.640
REMARK UNBOUND:                 7.741
REMARK  9 active torsions:
REMARK  status: ('A' for Active; 'I' for Inactive)
REMARK    1  A    between atoms: C_13  and  C_16 
REMARK    2  A    between atoms: C_14  and  C_17 
REMARK    3  A    between atoms: C_15  and  C_18 
REMARK    4  A    between atoms: C_16  and  C_22 
REMARK    5  A    between atoms: C_17  and  C_23 
REMARK    6  A    between atoms: C_18  and  C_24 
REMARK    7  A    between atoms: C_19  and  C_25 
REMARK    8  A    between atoms: C_20  and  C_26 
REMARK    9  A    between atoms: C_21  and  C_27 
ROOT
HETATM    1  O   UNL     1      13.186  -3.923   2.945  1.00  0.00    -0.304 OA
HETATM    2  O   UNL     1       9.846  -1.080   0.389  1.00  0.00    -0.304 OA
HETATM    3  O   UNL     1      11.449  -5.596  -0.315  1.00  0.00    -0.304 OA
HETATM    4  O   UNL     1      11.660  -1.862   3.324  1.00  0.00    -0.270 OA
HETATM    5  O   UNL     1      13.718  -8.184  -0.521  1.00  0.00    -0.270 OA
HETATM    6  O   UNL     1       9.642  -3.541   1.308  1.00  0.00    -0.270 OA
HETATM    7  O   UNL     1      15.075  -5.119   2.379  1.00  0.00    -0.263 OA
HETATM    8  O   UNL     1      11.881  -1.422  -0.646  1.00  0.00    -0.263 OA
HETATM    9  O   UNL     1      10.633  -7.741  -0.489  1.00  0.00    -0.263 OA
HETATM   10  N   UNL     1      12.929  -0.619   1.832  1.00  0.00    -0.340 N 
HETATM   11  N   UNL     1      13.447  -7.230   1.575  1.00  0.00    -0.340 N 
HETATM   12  N   UNL     1       9.056  -4.525  -0.710  1.00  0.00    -0.340 N 
HETATM   13  C   UNL     1      11.719   0.038   1.298  1.00  0.00     0.190 C 
HETATM   14  C   UNL     1      12.879  -6.189   2.457  1.00  0.00     0.190 C 
HETATM   15  C   UNL     1       9.099  -5.887  -0.130  1.00  0.00     0.190 C 
HETATM   16  C   UNL     1      13.878  -2.656   2.927  1.00  0.00     0.227 C 
HETATM   17  C   UNL     1       9.200  -2.022  -0.490  1.00  0.00     0.227 C 
HETATM   18  C   UNL     1      12.821  -5.952  -0.514  1.00  0.00     0.227 C 
HETATM   19  C   UNL     1      12.733  -1.669   2.741  1.00  0.00     0.250 C 
HETATM   20  C   UNL     1      13.352  -7.228   0.174  1.00  0.00     0.250 C 
HETATM   21  C   UNL     1       9.324  -3.424   0.118  1.00  0.00     0.250 C 
HETATM   22  C   UNL     1      13.872  -5.045   2.582  1.00  0.00     0.283 C 
HETATM   23  C   UNL     1      11.192  -0.902   0.222  1.00  0.00     0.283 C 
HETATM   24  C   UNL     1      10.463  -6.534  -0.376  1.00  0.00     0.283 C 
HETATM   25  C   UNL     1      14.237  -0.246   1.289  1.00  0.00     0.153 C 
HETATM   26  C   UNL     1      14.161  -8.339   2.209  1.00  0.00     0.153 C 
HETATM   27  C   UNL     1       8.802  -4.438  -2.152  1.00  0.00     0.153 C 
ENDROOT
BRANCH  16  28
HETATM   28  C   UNL     1      14.580  -2.422   4.252  1.00  0.00     0.016 C 
HETATM   29  C   UNL     1      13.684  -2.838   5.417  1.00  0.00     0.012 C 
HETATM   30  C   UNL     1      14.993  -0.958   4.391  1.00  0.00     0.012 C 
ENDBRANCH  16  28
BRANCH  14  31
HETATM   31  C   UNL     1      12.463  -6.675   3.845  1.00  0.00     0.014 C 
HETATM   32  C   UNL     1      13.641  -6.541   4.814  1.00  0.00     0.012 C 
BRANCH  31  33
HETATM   33  C   UNL     1      11.247  -5.909   4.393  1.00  0.00     0.002 C 
HETATM   34  C   UNL     1       9.966  -6.157   3.608  1.00  0.00     0.005 C 
ENDBRANCH  31  33
ENDBRANCH  14  31
BRANCH  13  35
HETATM   35  C   UNL     1      11.902   1.434   0.719  1.00  0.00     0.014 C 
HETATM   36  C   UNL     1      10.657   1.831  -0.079  1.00  0.00     0.012 C 
BRANCH  35  37
HETATM   37  C   UNL     1      12.184   2.489   1.803  1.00  0.00     0.002 C 
HETATM   38  C   UNL     1      11.300   2.346   3.035  1.00  0.00     0.005 C 
ENDBRANCH  35  37
ENDBRANCH  13  35
BRANCH  18  39
HETATM   39  C   UNL     1      13.075  -5.983  -2.022  1.00  0.00     0.016 C 
HETATM   40  C   UNL     1      12.266  -4.896  -2.725  1.00  0.00     0.012 C 
HETATM   41  C   UNL     1      14.565  -5.819  -2.318  1.00  0.00     0.012 C 
ENDBRANCH  18  39
BRANCH  17  42
HETATM   42  C   UNL     1       7.735  -1.617  -0.577  1.00  0.00     0.016 C 
HETATM   43  C   UNL     1       7.243  -1.677  -2.023  1.00  0.00     0.012 C 
HETATM   44  C   UNL     1       7.525  -0.218   0.001  1.00  0.00     0.012 C 
ENDBRANCH  17  42
BRANCH  15  45
HETATM   45  C   UNL     1       7.959  -6.786  -0.605  1.00  0.00     0.014 C 
HETATM   46  C   UNL     1       7.288  -7.460   0.597  1.00  0.00     0.012 C 
BRANCH  45  47
HETATM   47  C   UNL     1       6.904  -6.020  -1.425  1.00  0.00     0.002 C 
HETATM   48  C   UNL     1       5.585  -5.832  -0.691  1.00  0.00     0.005 C 
ENDBRANCH  45  47
ENDBRANCH  15  45
TORSDOF 9
ENDMDL
MODEL 7
REMARK VINA RESULT:    -6.018      2.148      6.372
REMARK INTER + INTRA:          -1.443
REMARK INTER:                  -3.478
REMARK INTRA:                   2.034
REMARK UNBOUND:                 7.741
REMARK  9 active torsions:
REMARK  status: ('A' for Active; 'I' for Inactive)
REMARK    1  A    between atoms: C_13  and  C_16 
REMARK    2  A    between atoms: C_14  and  C_17 
REMARK    3  A    between atoms: C_15  and  C_18 
REMARK    4  A    between atoms: C_16  and  C_22 
REMARK    5  A    between atoms: C_17  and  C_23 
REMARK    6  A    between atoms: C_18  and  C_24 
REMARK    7  A    between atoms: C_19  and  C_25 
REMARK    8  A    between atoms: C_20  and  C_26 
REMARK    9  A    between atoms: C_21  and  C_27 
ROOT
HETATM    1  O   UNL     1      12.641  -3.943   3.552  1.00  0.00    -0.304 OA
HETATM    2  O   UNL     1      11.296   0.819   2.419  1.00  0.00    -0.304 OA
HETATM    3  O   UNL     1      11.939  -3.101  -0.352  1.00  0.00    -0.304 OA
HETATM    4  O   UNL     1      11.615  -1.860   4.706  1.00  0.00    -0.270 OA
HETATM    5  O   UNL     1      13.441  -5.979  -1.514  1.00  0.00    -0.270 OA
HETATM    6  O   UNL     1      10.187  -1.474   1.746  1.00  0.00    -0.270 OA
HETATM    7  O   UNL     1      14.266  -5.397   2.801  1.00  0.00    -0.263 OA
HETATM    8  O   UNL     1      13.431   0.198   1.796  1.00  0.00    -0.263 OA
HETATM    9  O   UNL     1      10.774  -4.402  -1.850  1.00  0.00    -0.263 OA
HETATM   10  N   UNL     1      13.610  -0.705   4.448  1.00  0.00    -0.340 N 
HETATM   11  N   UNL     1      12.622  -6.060   0.655  1.00  0.00    -0.340 N 
HETATM   12  N   UNL     1      10.201  -1.108  -0.545  1.00  0.00    -0.340 N 
HETATM   13  C   UNL     1      12.886   0.545   4.146  1.00  0.00     0.190 C 
HETATM   14  C   UNL     1      12.021  -5.403   1.834  1.00  0.00     0.190 C 
HETATM   15  C   UNL     1       9.699  -2.472  -0.829  1.00  0.00     0.190 C 
HETATM   16  C   UNL     1      13.563  -3.204   4.381  1.00  0.00     0.227 C 
HETATM   17  C   UNL     1      10.832   0.727   1.057  1.00  0.00     0.227 C 
HETATM   18  C   UNL     1      13.158  -3.845  -0.440  1.00  0.00     0.227 C 
HETATM   19  C   UNL     1      12.842  -1.874   4.556  1.00  0.00     0.250 C 
HETATM   20  C   UNL     1      13.072  -5.386  -0.493  1.00  0.00     0.250 C 
HETATM   21  C   UNL     1      10.383  -0.715   0.789  1.00  0.00     0.250 C 
HETATM   22  C   UNL     1      13.130  -4.946   2.769  1.00  0.00     0.283 C 
HETATM   23  C   UNL     1      12.605   0.496   2.649  1.00  0.00     0.283 C 
HETATM   24  C   UNL     1      10.861  -3.424  -1.119  1.00  0.00     0.283 C 
HETATM   25  C   UNL     1      15.074  -0.688   4.477  1.00  0.00     0.153 C 
HETATM   26  C   UNL     1      12.759  -7.516   0.687  1.00  0.00     0.153 C 
HETATM   27  C   UNL     1      10.545  -0.284  -1.709  1.00  0.00     0.153 C 
ENDROOT
BRANCH  16  28
HETATM   28  C   UNL     1      13.741  -3.899   5.719  1.00  0.00     0.016 C 
HETATM   29  C   UNL     1      13.663  -2.892   6.864  1.00  0.00     0.012 C 
HETATM   30  C   UNL     1      15.067  -4.657   5.761  1.00  0.00     0.012 C 
ENDBRANCH  16  28
BRANCH  14  31
HETATM   31  C   UNL     1      11.007  -6.250   2.599  1.00  0.00     0.014 C 
HETATM   32  C   UNL     1      11.310  -6.191   4.098  1.00  0.00     0.012 C 
BRANCH  31  33
HETATM   33  C   UNL     1       9.557  -5.803   2.341  1.00  0.00     0.002 C 
HETATM   34  C   UNL     1       8.648  -6.928   1.866  1.00  0.00     0.005 C 
ENDBRANCH  31  33
ENDBRANCH  14  31
BRANCH  13  35
HETATM   35  C   UNL     1      13.597   1.845   4.494  1.00  0.00     0.014 C 
HETATM   36  C   UNL     1      12.901   3.019   3.799  1.00  0.00     0.012 C 
BRANCH  35  37
HETATM   37  C   UNL     1      13.653   2.097   6.011  1.00  0.00     0.002 C 
HETATM   38  C   UNL     1      14.659   3.168   6.413  1.00  0.00     0.005 C 
ENDBRANCH  35  37
ENDBRANCH  13  35
BRANCH  18  39
HETATM   39  C   UNL     1      13.954  -3.289  -1.622  1.00  0.00     0.016 C 
HETATM   40  C   UNL     1      14.521  -1.912  -1.287  1.00  0.00     0.012 C 
HETATM   41  C   UNL     1      15.075  -4.250  -2.014  1.00  0.00     0.012 C 
ENDBRANCH  18  39
BRANCH  17  42
HETATM   42  C   UNL     1       9.650   1.677   0.923  1.00  0.00     0.016 C 
HETATM   43  C   UNL     1       9.913   2.715  -0.168  1.00  0.00     0.012 C 
HETATM   44  C   UNL     1       9.357   2.365   2.256  1.00  0.00     0.012 C 
ENDBRANCH  17  42
BRANCH  15  45
HETATM   45  C   UNL     1       8.651  -2.515  -1.939  1.00  0.00     0.014 C 
HETATM   46  C   UNL     1       8.713  -3.862  -2.667  1.00  0.00     0.012 C 
BRANCH  45  47
HETATM   47  C   UNL     1       7.222  -2.277  -1.412  1.00  0.00     0.002 C 
HETATM   48  C   UNL     1       6.905  -0.811  -1.163  1.00  0.00     0.005 C 
ENDBRANCH  45  47
ENDBRANCH  15  45
TORSDOF 9
ENDMDL
MODEL 8
REMARK VINA RESULT:    -5.784      2.090      8.359
REMARK INTER + INTRA:          -1.086
REMARK INTER:                  -2.842
REMARK INTRA:                   1.756
REMARK UNBOUND:                 7.741
REMARK  9 active torsions:
REMARK  status: ('A' for Active; 'I' for Inactive)
REMARK    1  A    between atoms: C_13  and  C_16 
REMARK    2  A    between atoms: C_14  and  C_17 
REMARK    3  A    between atoms: C_15  and  C_18 
REMARK    4  A    between atoms: C_16  and  C_22 
REMARK    5  A    between atoms: C_17  and  C_23 
REMARK    6  A    between atoms: C_18  and  C_24 
REMARK    7  A    between atoms: C_19  and  C_25 
REMARK    8  A    between atoms: C_20  and  C_26 
REMARK    9  A    between atoms: C_21  and  C_27 
ROOT
HETATM    1  O   UNL     1      13.513  -2.405   3.443  1.00  0.00    -0.304 OA
HETATM    2  O   UNL     1      10.195  -3.253  -0.304  1.00  0.00    -0.304 OA
HETATM    3  O   UNL     1      10.401   0.175   3.112  1.00  0.00    -0.304 OA
HETATM    4  O   UNL     1      13.392  -3.632   1.162  1.00  0.00    -0.270 OA
HETATM    5  O   UNL     1      10.855   1.535   6.248  1.00  0.00    -0.270 OA
HETATM    6  O   UNL     1      11.472  -1.052   0.379  1.00  0.00    -0.270 OA
HETATM    7  O   UNL     1      13.348  -2.091   5.722  1.00  0.00    -0.263 OA
HETATM    8  O   UNL     1       9.448  -3.720   1.830  1.00  0.00    -0.263 OA
HETATM    9  O   UNL     1      10.491   2.467   3.296  1.00  0.00    -0.263 OA
HETATM   10  N   UNL     1      11.860  -5.143   2.031  1.00  0.00    -0.340 N 
HETATM   11  N   UNL     1      12.730   0.585   5.268  1.00  0.00    -0.340 N 
HETATM   12  N   UNL     1       9.589   0.287   0.591  1.00  0.00    -0.340 N 
HETATM   13  C   UNL     1      11.104  -5.155   0.763  1.00  0.00     0.190 C 
HETATM   14  C   UNL     1      13.368  -0.192   4.184  1.00  0.00     0.190 C 
HETATM   15  C   UNL     1      10.383   1.431   1.097  1.00  0.00     0.190 C 
HETATM   16  C   UNL     1      13.363  -3.837   3.543  1.00  0.00     0.227 C 
HETATM   17  C   UNL     1       9.417  -2.040  -0.350  1.00  0.00     0.227 C 
HETATM   18  C   UNL     1      10.408  -0.079   4.521  1.00  0.00     0.227 C 
HETATM   19  C   UNL     1      12.901  -4.209   2.140  1.00  0.00     0.250 C 
HETATM   20  C   UNL     1      11.344   0.766   5.411  1.00  0.00     0.250 C 
HETATM   21  C   UNL     1      10.252  -0.899   0.241  1.00  0.00     0.250 C 
HETATM   22  C   UNL     1      13.409  -1.659   4.580  1.00  0.00     0.283 C 
HETATM   23  C   UNL     1      10.144  -3.976   0.855  1.00  0.00     0.283 C 
HETATM   24  C   UNL     1      10.389   1.447   2.626  1.00  0.00     0.283 C 
HETATM   25  C   UNL     1      11.405  -5.987   3.137  1.00  0.00     0.153 C 
HETATM   26  C   UNL     1      13.605   1.206   6.261  1.00  0.00     0.153 C 
HETATM   27  C   UNL     1       8.134   0.465   0.564  1.00  0.00     0.153 C 
ENDROOT
BRANCH  16  28
HETATM   28  C   UNL     1      14.699  -4.485   3.858  1.00  0.00     0.016 C 
HETATM   29  C   UNL     1      15.037  -5.555   2.821  1.00  0.00     0.012 C 
HETATM   30  C   UNL     1      14.690  -5.084   5.263  1.00  0.00     0.012 C 
ENDBRANCH  16  28
BRANCH  14  31
HETATM   31  C   UNL     1      14.764   0.283   3.785  1.00  0.00     0.014 C 
HETATM   32  C   UNL     1      15.075  -0.169   2.356  1.00  0.00     0.012 C 
BRANCH  31  33
HETATM   33  C   UNL     1      14.917   1.810   3.895  1.00  0.00     0.002 C 
HETATM   34  C   UNL     1      14.328   2.567   2.714  1.00  0.00     0.005 C 
ENDBRANCH  31  33
ENDBRANCH  14  31
BRANCH  13  35
HETATM   35  C   UNL     1      10.329  -6.427   0.445  1.00  0.00     0.014 C 
HETATM   36  C   UNL     1       8.837  -6.107   0.317  1.00  0.00     0.012 C 
BRANCH  35  37
HETATM   37  C   UNL     1      10.826  -7.112  -0.840  1.00  0.00     0.002 C 
HETATM   38  C   UNL     1       9.846  -7.010  -2.002  1.00  0.00     0.005 C 
ENDBRANCH  35  37
ENDBRANCH  13  35
BRANCH  18  39
HETATM   39  C   UNL     1       8.959  -0.009   5.008  1.00  0.00     0.016 C 
HETATM   40  C   UNL     1       8.064  -0.911   4.163  1.00  0.00     0.012 C 
HETATM   41  C   UNL     1       8.871  -0.395   6.484  1.00  0.00     0.012 C 
ENDBRANCH  18  39
BRANCH  17  42
HETATM   42  C   UNL     1       9.112  -1.761  -1.815  1.00  0.00     0.016 C 
HETATM   43  C   UNL     1       8.556  -3.010  -2.499  1.00  0.00     0.012 C 
HETATM   44  C   UNL     1      10.361  -1.266  -2.543  1.00  0.00     0.012 C 
ENDBRANCH  17  42
BRANCH  15  45
HETATM   45  C   UNL     1       9.942   2.777   0.525  1.00  0.00     0.014 C 
HETATM   46  C   UNL     1      11.155   3.700   0.362  1.00  0.00     0.012 C 
BRANCH  45  47
HETATM   47  C   UNL     1       9.214   2.636  -0.825  1.00  0.00     0.002 C 
HETATM   48  C   UNL     1       8.136   3.687  -1.045  1.00  0.00     0.005 C 
ENDBRANCH  45  47
ENDBRANCH  15  45
TORSDOF 9
ENDMDL
MODEL 9
REMARK VINA RESULT:    -5.689      1.780      6.591
REMARK INTER + INTRA:          -0.941
REMARK INTER:                  -4.465
REMARK INTRA:                   3.523
REMARK UNBOUND:                 7.741
REMARK  9 active torsions:
REMARK  status: ('A' for Active; 'I' for Inactive)
REMARK    1  A    between atoms: C_13  and  C_16 
REMARK    2  A    between atoms: C_14  and  C_17 
REMARK    3  A    between atoms: C_15  and  C_18 
REMARK    4  A    between atoms: C_16  and  C_22 
REMARK    5  A    between atoms: C_17  and  C_23 
REMARK    6  A    between atoms: C_18  and  C_24 
REMARK    7  A    between atoms: C_19  and  C_25 
REMARK    8  A    between atoms: C_20  and  C_26 
REMARK    9  A    between atoms: C_21  and  C_27 
ROOT
HETATM    1  O   UNL     1      10.260  -4.893   1.815  1.00  0.00    -0.304 OA
HETATM    2  O   UNL     1      10.933  -0.198   3.622  1.00  0.00    -0.304 OA
HETATM    3  O   UNL     1       9.725  -1.821  -0.778  1.00  0.00    -0.304 OA
HETATM    4  O   UNL     1      10.260  -3.640   4.084  1.00  0.00    -0.270 OA
HETATM    5  O   UNL     1       9.828  -3.825  -3.582  1.00  0.00    -0.270 OA
HETATM    6  O   UNL     1       8.936  -1.227   2.246  1.00  0.00    -0.270 OA
HETATM    7  O   UNL     1      11.089  -6.080   0.019  1.00  0.00    -0.263 OA
HETATM    8  O   UNL     1      12.577  -0.976   2.201  1.00  0.00    -0.263 OA
HETATM    9  O   UNL     1       8.035  -1.607  -2.325  1.00  0.00    -0.263 OA
HETATM   10  N   UNL     1      12.534  -3.225   3.882  1.00  0.00    -0.340 N 
HETATM   11  N   UNL     1       9.188  -4.863  -1.610  1.00  0.00    -0.340 N 
HETATM   12  N   UNL     1       8.956   0.347   0.541  1.00  0.00    -0.340 N 
HETATM   13  C   UNL     1      12.372  -1.875   4.457  1.00  0.00     0.190 C 
HETATM   14  C   UNL     1       8.987  -4.844  -0.146  1.00  0.00     0.190 C 
HETATM   15  C   UNL     1       7.919  -0.381  -0.227  1.00  0.00     0.190 C 
HETATM   16  C   UNL     1      11.456  -5.082   2.602  1.00  0.00     0.227 C 
HETATM   17  C   UNL     1      10.388   0.647   2.589  1.00  0.00     0.227 C 
HETATM   18  C   UNL     1      10.520  -2.716  -1.563  1.00  0.00     0.227 C 
HETATM   19  C   UNL     1      11.360  -3.943   3.608  1.00  0.00     0.250 C 
HETATM   20  C   UNL     1       9.802  -3.837  -2.345  1.00  0.00     0.250 C 
HETATM   21  C   UNL     1       9.368  -0.165   1.781  1.00  0.00     0.250 C 
HETATM   22  C   UNL     1      10.241  -5.367   0.536  1.00  0.00     0.283 C 
HETATM   23  C   UNL     1      12.003  -0.978   3.283  1.00  0.00     0.283 C 
HETATM   24  C   UNL     1       8.564  -1.301  -1.264  1.00  0.00     0.283 C 
HETATM   25  C   UNL     1      13.873  -3.679   3.502  1.00  0.00     0.153 C 
HETATM   26  C   UNL     1       8.712  -6.037  -2.343  1.00  0.00     0.153 C 
HETATM   27  C   UNL     1       9.535   1.530  -0.104  1.00  0.00     0.153 C 
ENDROOT
BRANCH  16  28
HETATM   28  C   UNL     1      11.414  -6.426   3.306  1.00  0.00     0.016 C 
HETATM   29  C   UNL     1      10.225  -6.497   4.263  1.00  0.00     0.012 C 
HETATM   30  C   UNL     1      12.720  -6.683   4.056  1.00  0.00     0.012 C 
ENDBRANCH  16  28
BRANCH  14  31
HETATM   31  C   UNL     1       7.763  -5.613   0.349  1.00  0.00     0.014 C 
HETATM   32  C   UNL     1       6.626  -5.485  -0.667  1.00  0.00     0.012 C 
BRANCH  31  33
HETATM   33  C   UNL     1       8.070  -7.099   0.604  1.00  0.00     0.002 C 
HETATM   34  C   UNL     1       7.079  -7.773   1.542  1.00  0.00     0.005 C 
ENDBRANCH  31  33
ENDBRANCH  14  31
BRANCH  13  35
HETATM   35  C   UNL     1      13.578  -1.298   5.187  1.00  0.00     0.014 C 
HETATM   36  C   UNL     1      13.654   0.213   4.948  1.00  0.00     0.012 C 
BRANCH  35  37
HETATM   37  C   UNL     1      13.543  -1.584   6.698  1.00  0.00     0.002 C 
HETATM   38  C   UNL     1      14.565  -2.621   7.144  1.00  0.00     0.005 C 
ENDBRANCH  35  37
ENDBRANCH  13  35
BRANCH  18  39
HETATM   39  C   UNL     1      11.398  -1.866  -2.483  1.00  0.00     0.016 C 
HETATM   40  C   UNL     1      10.652  -0.611  -2.928  1.00  0.00     0.012 C 
HETATM   41  C   UNL     1      12.705  -1.495  -1.784  1.00  0.00     0.012 C 
ENDBRANCH  18  39
BRANCH  17  42
HETATM   42  C   UNL     1       9.698   1.813   3.283  1.00  0.00     0.016 C 
HETATM   43  C   UNL     1      10.637   3.014   3.384  1.00  0.00     0.012 C 
HETATM   44  C   UNL     1       9.205   1.401   4.669  1.00  0.00     0.012 C 
ENDBRANCH  17  42
BRANCH  15  45
HETATM   45  C   UNL     1       6.879   0.538  -0.864  1.00  0.00     0.014 C 
HETATM   46  C   UNL     1       5.486  -0.093  -0.757  1.00  0.00     0.012 C 
BRANCH  45  47
HETATM   47  C   UNL     1       6.861   1.942  -0.229  1.00  0.00     0.002 C 
HETATM   48  C   UNL     1       5.780   2.850  -0.795  1.00  0.00     0.005 C 
ENDBRANCH  45  47
ENDBRANCH  15  45
TORSDOF 9
ENDMDL
