MODEL 1
REMARK VINA RESULT:    -7.199      0.000      0.000
REMARK INTER + INTRA:          -3.933
REMARK INTER:                  -4.567
REMARK INTRA:                   0.633
REMARK UNBOUND:                 6.632
REMARK  8 active torsions:
REMARK  status: ('A' for Active; 'I' for Inactive)
REMARK    1  A    between atoms: C_13  and  C_15 
REMARK    2  A    between atoms: C_14  and  C_16 
REMARK    3  A    between atoms: C_15  and  C_22 
REMARK    4  A    between atoms: C_16  and  C_23 
REMARK    5  A    between atoms: C_17  and  C_21 
REMARK    6  A    between atoms: C_18  and  C_24 
REMARK    7  A    between atoms: C_19  and  C_27 
REMARK    8  A    between atoms: C_20  and  C_30 
ROOT
HETATM    1  O   UNL     1      12.206  -1.217   4.044  1.00  0.00    -0.304 OA
HETATM    2  O   UNL     1      10.947  -5.349   1.855  1.00  0.00    -0.304 OA
HETATM    3  O   UNL     1       9.511  -2.136  -0.158  1.00  0.00    -0.304 OA
HETATM    4  O   UNL     1      12.756  -2.735   1.962  1.00  0.00    -0.270 OA
HETATM    5  O   UNL     1      10.092  -2.084   4.371  1.00  0.00    -0.263 OA
HETATM    6  O   UNL     1      10.877  -0.217   0.921  1.00  0.00    -0.270 OA
HETATM    7  O   UNL     1      11.926  -7.220   0.939  1.00  0.00    -0.263 OA
HETATM    8  O   UNL     1       8.918  -7.609   0.222  1.00  0.00    -0.270 OA
HETATM    9  O   UNL     1       7.681  -3.447  -0.664  1.00  0.00    -0.263 OA
HETATM   10  N   UNL     1      13.157  -4.682   3.158  1.00  0.00    -0.340 N 
HETATM   11  N   UNL     1       9.312  -0.029   2.625  1.00  0.00    -0.340 N 
HETATM   12  N   UNL     1       9.375  -5.641  -0.916  1.00  0.00    -0.340 N 
HETATM   13  C   UNL     1      13.317  -5.482   1.921  1.00  0.00     0.190 C 
HETATM   14  C   UNL     1      10.375   0.215   3.620  1.00  0.00     0.190 C 
HETATM   15  C   UNL     1      12.814  -2.489   4.343  1.00  0.00     0.227 C 
HETATM   16  C   UNL     1       9.958  -4.284  -0.967  1.00  0.00     0.190 C 
HETATM   17  C   UNL     1       8.709  -1.100   0.448  1.00  0.00     0.227 C 
HETATM   18  C   UNL     1       9.600  -5.758   1.599  1.00  0.00     0.227 C 
HETATM   19  C   UNL     1      12.900  -3.307   3.049  1.00  0.00     0.250 C 
HETATM   20  C   UNL     1      10.839  -1.166   4.062  1.00  0.00     0.283 C 
HETATM   21  C   UNL     1       9.723  -0.386   1.332  1.00  0.00     0.250 C 
HETATM   22  C   UNL     1      11.999  -6.157   1.543  1.00  0.00     0.283 C 
HETATM   23  C   UNL     1       9.284  -6.428   0.243  1.00  0.00     0.250 C 
HETATM   24  C   UNL     1       8.888  -3.270  -0.594  1.00  0.00     0.283 C 
HETATM   25  C   UNL     1      13.209  -5.420   4.424  1.00  0.00     0.153 C 
HETATM   26  C   UNL     1       7.915  -0.028   3.065  1.00  0.00     0.153 C 
HETATM   27  C   UNL     1       8.857  -6.203  -2.164  1.00  0.00     0.153 C 
ENDROOT
BRANCH  15  28
HETATM   28  C   UNL     1      14.211  -2.201   4.876  1.00  0.00     0.016 C 
HETATM   29  C   UNL     1      14.781  -0.936   4.237  1.00  0.00     0.012 C 
HETATM   30  C   UNL     1      14.192  -2.070   6.398  1.00  0.00     0.012 C 
ENDBRANCH  15  28
BRANCH  14  31
HETATM   31  C   UNL     1       9.990   1.043   4.838  1.00  0.00     0.014 C 
HETATM   32  C   UNL     1      10.797   0.580   6.054  1.00  0.00     0.012 C 
BRANCH  31  33
HETATM   33  C   UNL     1      10.204   2.551   4.612  1.00  0.00     0.002 C 
HETATM   34  C   UNL     1      11.185   2.865   3.490  1.00  0.00     0.005 C 
ENDBRANCH  31  33
ENDBRANCH  14  31
BRANCH  13  35
HETATM   35  C   UNL     1      14.462  -6.491   1.995  1.00  0.00     0.014 C 
HETATM   36  C   UNL     1      13.988  -7.763   2.703  1.00  0.00     0.012 C 
BRANCH  35  37
HETATM   37  C   UNL     1      15.021  -6.848   0.605  1.00  0.00     0.002 C 
HETATM   38  C   UNL     1      15.075  -5.666  -0.351  1.00  0.00     0.005 C 
ENDBRANCH  35  37
ENDBRANCH  13  35
BRANCH  17  39
HETATM   39  C   UNL     1       8.170  -0.162  -0.617  1.00  0.00     0.016 C 
HETATM   40  C   UNL     1       8.797   1.223  -0.479  1.00  0.00     0.012 C 
HETATM   41  C   UNL     1       6.648  -0.074  -0.534  1.00  0.00     0.012 C 
ENDBRANCH  17  39
BRANCH  18  42
HETATM   42  C   UNL     1       9.153  -6.631   2.772  1.00  0.00     0.016 C 
HETATM   43  C   UNL     1       9.610  -6.028   4.100  1.00  0.00     0.012 C 
HETATM   44  C   UNL     1       7.636  -6.814   2.762  1.00  0.00     0.012 C 
ENDBRANCH  18  42
BRANCH  16  45
HETATM   45  C   UNL     1      10.596  -3.904  -2.302  1.00  0.00     0.010 C 
HETATM   46  C   UNL     1      12.058  -3.504  -2.108  1.00  0.00     0.012 C 
HETATM   47  C   UNL     1       9.817  -2.772  -2.971  1.00  0.00     0.012 C 
ENDBRANCH  16  45
TORSDOF 8
ENDMDL
MODEL 2
REMARK VINA RESULT:    -7.039      1.749      6.165
REMARK INTER + INTRA:          -3.699
REMARK INTER:                  -6.692
REMARK INTRA:                   2.993
REMARK UNBOUND:                 6.632
REMARK  8 active torsions:
REMARK  status: ('A' for Active; 'I' for Inactive)
REMARK    1  A    between atoms: C_13  and  C_15 
REMARK    2  A    between atoms: C_14  and  C_16 
REMARK    3  A    between atoms: C_15  and  C_22 
REMARK    4  A    between atoms: C_16  and  C_23 
REMARK    5  A    between atoms: C_17  and  C_21 
REMARK    6  A    between atoms: C_18  and  C_24 
REMARK    7  A    between atoms: C_19  and  C_27 
REMARK    8  A    between atoms: C_20  and  C_30 
ROOT
HETATM    1  O   UNL     1       9.296  -0.705  -0.154  1.00  0.00    -0.304 OA
HETATM    2  O   UNL     1      11.913  -4.752  -0.627  1.00  0.00    -0.304 OA
HETATM    3  O   UNL     1      12.378  -3.138   3.063  1.00  0.00    -0.304 OA
HETATM    4  O   UNL     1       9.371  -3.243   0.547  1.00  0.00    -0.270 OA
HETATM    5  O   UNL     1      11.553  -0.558  -0.614  1.00  0.00    -0.263 OA
HETATM    6  O   UNL     1      10.419  -1.443   3.119  1.00  0.00    -0.270 OA
HETATM    7  O   UNL     1      11.626  -6.981  -1.126  1.00  0.00    -0.263 OA
HETATM    8  O   UNL     1      14.639  -6.844  -0.343  1.00  0.00    -0.270 OA
HETATM    9  O   UNL     1      14.553  -3.902   2.969  1.00  0.00    -0.263 OA
HETATM   10  N   UNL     1       9.534  -4.103  -1.601  1.00  0.00    -0.340 N 
HETATM   11  N   UNL     1      11.745   0.162   2.093  1.00  0.00    -0.340 N 
HETATM   12  N   UNL     1      13.653  -6.179   1.647  1.00  0.00    -0.340 N 
HETATM   13  C   UNL     1       9.705  -5.487  -1.101  1.00  0.00     0.190 C 
HETATM   14  C   UNL     1      10.604   0.636   1.285  1.00  0.00     0.190 C 
HETATM   15  C   UNL     1       9.103  -1.653  -1.223  1.00  0.00     0.227 C 
HETATM   16  C   UNL     1      12.676  -5.358   2.394  1.00  0.00     0.190 C 
HETATM   17  C   UNL     1      12.778  -1.770   3.298  1.00  0.00     0.227 C 
HETATM   18  C   UNL     1      13.332  -4.828  -0.465  1.00  0.00     0.227 C 
HETATM   19  C   UNL     1       9.352  -3.064  -0.676  1.00  0.00     0.250 C 
HETATM   20  C   UNL     1      10.573  -0.267   0.060  1.00  0.00     0.283 C 
HETATM   21  C   UNL     1      11.542  -0.996   2.859  1.00  0.00     0.250 C 
HETATM   22  C   UNL     1      11.189  -5.844  -1.001  1.00  0.00     0.283 C 
HETATM   23  C   UNL     1      13.920  -6.051   0.275  1.00  0.00     0.250 C 
HETATM   24  C   UNL     1      13.350  -4.071   2.841  1.00  0.00     0.283 C 
HETATM   25  C   UNL     1       9.645  -3.914  -3.051  1.00  0.00     0.153 C 
HETATM   26  C   UNL     1      13.043   0.823   1.944  1.00  0.00     0.153 C 
HETATM   27  C   UNL     1      14.391  -7.198   2.393  1.00  0.00     0.153 C 
ENDROOT
BRANCH  15  28
HETATM   28  C   UNL     1       7.657  -1.517  -1.683  1.00  0.00     0.016 C 
HETATM   29  C   UNL     1       6.938  -2.862  -1.608  1.00  0.00     0.012 C 
HETATM   30  C   UNL     1       6.922  -0.470  -0.849  1.00  0.00     0.012 C 
ENDBRANCH  15  28
BRANCH  14  31
HETATM   31  C   UNL     1      10.639   2.095   0.849  1.00  0.00     0.014 C 
HETATM   32  C   UNL     1       9.676   2.307  -0.322  1.00  0.00     0.012 C 
BRANCH  31  33
HETATM   33  C   UNL     1      10.286   3.057   1.997  1.00  0.00     0.002 C 
HETATM   34  C   UNL     1       9.618   2.373   3.182  1.00  0.00     0.005 C 
ENDBRANCH  31  33
ENDBRANCH  14  31
BRANCH  13  35
HETATM   35  C   UNL     1       8.933  -6.526  -1.914  1.00  0.00     0.014 C 
HETATM   36  C   UNL     1       9.711  -7.845  -1.943  1.00  0.00     0.012 C 
BRANCH  35  37
HETATM   37  C   UNL     1       7.517  -6.769  -1.363  1.00  0.00     0.002 C 
HETATM   38  C   UNL     1       7.496  -7.181   0.102  1.00  0.00     0.005 C 
ENDBRANCH  35  37
ENDBRANCH  13  35
BRANCH  17  39
HETATM   39  C   UNL     1      13.054  -1.550   4.774  1.00  0.00     0.016 C 
HETATM   40  C   UNL     1      12.108  -0.498   5.346  1.00  0.00     0.012 C 
HETATM   41  C   UNL     1      14.509  -1.139   4.992  1.00  0.00     0.012 C 
ENDBRANCH  17  39
BRANCH  18  42
HETATM   42  C   UNL     1      13.964  -4.654  -1.847  1.00  0.00     0.016 C 
HETATM   43  C   UNL     1      15.075  -3.605  -1.805  1.00  0.00     0.012 C 
HETATM   44  C   UNL     1      14.505  -5.985  -2.365  1.00  0.00     0.012 C 
ENDBRANCH  18  42
BRANCH  16  45
HETATM   45  C   UNL     1      12.028  -6.053   3.590  1.00  0.00     0.010 C 
HETATM   46  C   UNL     1      10.508  -6.090   3.436  1.00  0.00     0.012 C 
HETATM   47  C   UNL     1      12.416  -5.357   4.895  1.00  0.00     0.012 C 
ENDBRANCH  16  45
TORSDOF 8
ENDMDL
MODEL 3
REMARK VINA RESULT:    -6.893      1.793      6.507
REMARK INTER + INTRA:          -3.484
REMARK INTER:                  -5.421
REMARK INTRA:                   1.937
REMARK UNBOUND:                 6.632
REMARK  8 active torsions:
REMARK  status: ('A' for Active; 'I' for Inactive)
REMARK    1  A    between atoms: C_13  and  C_15 
REMARK    2  A    between atoms: C_14  and  C_16 
REMARK    3  A    between atoms: C_15  and  C_22 
REMARK    4  A    between atoms: C_16  and  C_23 
REMARK    5  A    between atoms: C_17  and  C_21 
REMARK    6  A    between atoms: C_18  and  C_24 
REMARK    7  A    between atoms: C_19  and  C_27 
REMARK    8  A    between atoms: C_20  and  C_30 
ROOT
HETATM    1  O   UNL     1      11.797  -1.204   5.178  1.00  0.00    -0.304 OA
HETATM    2  O   UNL     1      11.336  -1.666   0.379  1.00  0.00    -0.304 OA
HETATM    3  O   UNL     1      11.851  -5.277   2.150  1.00  0.00    -0.304 OA
HETATM    4  O   UNL     1      10.110  -1.956   3.300  1.00  0.00    -0.270 OA
HETATM    5  O   UNL     1      13.681  -1.463   3.870  1.00  0.00    -0.263 OA
HETATM    6  O   UNL     1      11.431  -4.681   4.636  1.00  0.00    -0.270 OA
HETATM    7  O   UNL     1       9.844  -1.158  -1.298  1.00  0.00    -0.263 OA
HETATM    8  O   UNL     1      12.004  -2.834  -2.795  1.00  0.00    -0.270 OA
HETATM    9  O   UNL     1      13.021  -5.882   0.256  1.00  0.00    -0.263 OA
HETATM   10  N   UNL     1      10.185   0.013   2.077  1.00  0.00    -0.340 N 
HETATM   11  N   UNL     1      13.657  -4.077   4.893  1.00  0.00    -0.340 N 
HETATM   12  N   UNL     1      11.228  -4.403  -1.274  1.00  0.00    -0.340 N 
HETATM   13  C   UNL     1       9.335  -0.549   1.001  1.00  0.00     0.190 C 
HETATM   14  C   UNL     1      13.284  -2.944   5.762  1.00  0.00     0.190 C 
HETATM   15  C   UNL     1      11.304  -0.152   4.324  1.00  0.00     0.227 C 
HETATM   16  C   UNL     1      10.840  -4.789   0.099  1.00  0.00     0.190 C 
HETATM   17  C   UNL     1      12.949  -5.590   3.033  1.00  0.00     0.227 C 
HETATM   18  C   UNL     1      12.313  -2.263  -0.479  1.00  0.00     0.227 C 
HETATM   19  C   UNL     1      10.486  -0.784   3.192  1.00  0.00     0.250 C 
HETATM   20  C   UNL     1      12.977  -1.792   4.815  1.00  0.00     0.283 C 
HETATM   21  C   UNL     1      12.609  -4.771   4.271  1.00  0.00     0.250 C 
HETATM   22  C   UNL     1      10.199  -1.113  -0.127  1.00  0.00     0.283 C 
HETATM   23  C   UNL     1      11.821  -3.178  -1.622  1.00  0.00     0.250 C 
HETATM   24  C   UNL     1      12.045  -5.391   0.804  1.00  0.00     0.283 C 
HETATM   25  C   UNL     1      10.716   1.362   1.852  1.00  0.00     0.153 C 
HETATM   26  C   UNL     1      15.074  -4.322   4.615  1.00  0.00     0.153 C 
HETATM   27  C   UNL     1      10.974  -5.366  -2.346  1.00  0.00     0.153 C 
ENDROOT
BRANCH  15  28
HETATM   28  C   UNL     1      10.414   0.738   5.182  1.00  0.00     0.016 C 
HETATM   29  C   UNL     1       9.651  -0.095   6.210  1.00  0.00     0.012 C 
HETATM   30  C   UNL     1      11.241   1.819   5.876  1.00  0.00     0.012 C 
ENDBRANCH  15  28
BRANCH  14  31
HETATM   31  C   UNL     1      14.320  -2.504   6.788  1.00  0.00     0.014 C 
HETATM   32  C   UNL     1      14.476  -0.982   6.746  1.00  0.00     0.012 C 
BRANCH  31  33
HETATM   33  C   UNL     1      13.957  -2.952   8.215  1.00  0.00     0.002 C 
HETATM   34  C   UNL     1      13.093  -1.949   8.967  1.00  0.00     0.005 C 
ENDBRANCH  31  33
ENDBRANCH  14  31
BRANCH  13  35
HETATM   35  C   UNL     1       8.295   0.437   0.471  1.00  0.00     0.014 C 
HETATM   36  C   UNL     1       8.919   1.312  -0.620  1.00  0.00     0.012 C 
BRANCH  35  37
HETATM   37  C   UNL     1       7.044  -0.269  -0.081  1.00  0.00     0.002 C 
HETATM   38  C   UNL     1       5.929   0.689  -0.478  1.00  0.00     0.005 C 
ENDBRANCH  35  37
ENDBRANCH  13  35
BRANCH  17  39
HETATM   39  C   UNL     1      12.957  -7.074   3.356  1.00  0.00     0.016 C 
HETATM   40  C   UNL     1      11.952  -7.388   4.461  1.00  0.00     0.012 C 
HETATM   41  C   UNL     1      14.358  -7.528   3.760  1.00  0.00     0.012 C 
ENDBRANCH  17  39
BRANCH  18  42
HETATM   42  C   UNL     1      13.208  -1.141  -1.008  1.00  0.00     0.016 C 
HETATM   43  C   UNL     1      13.211   0.047  -0.046  1.00  0.00     0.012 C 
HETATM   44  C   UNL     1      14.631  -1.648  -1.235  1.00  0.00     0.012 C 
ENDBRANCH  18  42
BRANCH  16  45
HETATM   45  C   UNL     1       9.650  -5.742   0.191  1.00  0.00     0.010 C 
HETATM   46  C   UNL     1       8.378  -5.070  -0.324  1.00  0.00     0.012 C 
HETATM   47  C   UNL     1       9.454  -6.226   1.627  1.00  0.00     0.012 C 
ENDBRANCH  16  45
TORSDOF 8
ENDMDL
MODEL 4
REMARK VINA RESULT:    -6.804      2.180      6.765
REMARK INTER + INTRA:          -3.353
REMARK INTER:                  -4.997
REMARK INTRA:                   1.643
REMARK UNBOUND:                 6.632
REMARK  8 active torsions:
REMARK  status: ('A' for Active; 'I' for Inactive)
REMARK    1  A    between atoms: C_13  and  C_15 
REMARK    2  A    between atoms: C_14  and  C_16 
REMARK    3  A    between atoms: C_15  and  C_22 
REMARK    4  A    between atoms: C_16  and  C_23 
REMARK    5  A    between atoms: C_17  and  C_21 
REMARK    6  A    between atoms: C_18  and  C_24 
REMARK    7  A    between atoms: C_19  and  C_27 
REMARK    8  A    between atoms: C_20  and  C_30 
ROOT
HETATM    1  O   UNL     1      11.367  -5.681   1.167  1.00  0.00    -0.304 OA
HETATM    2  O   UNL     1      13.071  -1.168   1.582  1.00  0.00    -0.304 OA
HETATM    3  O   UNL     1       9.445  -1.197  -0.232  1.00  0.00    -0.304 OA
HETATM    4  O   UNL     1      11.071  -3.450   2.536  1.00  0.00    -0.270 OA
HETATM    5  O   UNL     1      12.378  -4.672  -0.645  1.00  0.00    -0.263 OA
HETATM    6  O   UNL     1       8.640  -3.602   0.296  1.00  0.00    -0.270 OA
HETATM    7  O   UNL     1      13.783   0.297   3.208  1.00  0.00    -0.263 OA
HETATM    8  O   UNL     1      13.808   2.066   0.642  1.00  0.00    -0.270 OA
HETATM    9  O   UNL     1      10.213   0.584  -1.481  1.00  0.00    -0.263 OA
HETATM   10  N   UNL     1      13.285  -3.257   3.201  1.00  0.00    -0.340 N 
HETATM   11  N   UNL     1       9.744  -4.409  -1.579  1.00  0.00    -0.340 N 
HETATM   12  N   UNL     1      11.556   1.529   0.765  1.00  0.00    -0.340 N 
HETATM   13  C   UNL     1      13.046  -1.936   3.829  1.00  0.00     0.190 C 
HETATM   14  C   UNL     1      10.149  -5.631  -0.857  1.00  0.00     0.190 C 
HETATM   15  C   UNL     1      12.468  -5.326   2.027  1.00  0.00     0.227 C 
HETATM   16  C   UNL     1      10.472   0.541   0.949  1.00  0.00     0.190 C 
HETATM   17  C   UNL     1       9.135  -1.991  -1.396  1.00  0.00     0.227 C 
HETATM   18  C   UNL     1      13.300  -0.279   0.485  1.00  0.00     0.227 C 
HETATM   19  C   UNL     1      12.209  -3.930   2.603  1.00  0.00     0.250 C 
HETATM   20  C   UNL     1      11.437  -5.263  -0.132  1.00  0.00     0.283 C 
HETATM   21  C   UNL     1       9.121  -3.404  -0.826  1.00  0.00     0.250 C 
HETATM   22  C   UNL     1      13.390  -0.808   2.857  1.00  0.00     0.283 C 
HETATM   23  C   UNL     1      12.919   1.208   0.655  1.00  0.00     0.250 C 
HETATM   24  C   UNL     1      10.042   0.017  -0.412  1.00  0.00     0.283 C 
HETATM   25  C   UNL     1      14.673  -3.733   3.188  1.00  0.00     0.153 C 
HETATM   26  C   UNL     1      10.134  -4.252  -2.982  1.00  0.00     0.153 C 
HETATM   27  C   UNL     1      11.180   2.941   0.695  1.00  0.00     0.153 C 
ENDROOT
BRANCH  15  28
HETATM   28  C   UNL     1      12.509  -6.357   3.147  1.00  0.00     0.016 C 
HETATM   29  C   UNL     1      11.096  -6.795   3.529  1.00  0.00     0.012 C 
HETATM   30  C   UNL     1      13.352  -7.564   2.740  1.00  0.00     0.012 C 
ENDBRANCH  15  28
BRANCH  14  31
HETATM   31  C   UNL     1      10.371  -6.879  -1.700  1.00  0.00     0.014 C 
HETATM   32  C   UNL     1      11.621  -7.615  -1.215  1.00  0.00     0.012 C 
BRANCH  31  33
HETATM   33  C   UNL     1       9.160  -7.828  -1.670  1.00  0.00     0.002 C 
HETATM   34  C   UNL     1       7.872  -7.159  -1.210  1.00  0.00     0.005 C 
ENDBRANCH  31  33
ENDBRANCH  14  31
BRANCH  13  35
HETATM   35  C   UNL     1      13.765  -1.761   5.166  1.00  0.00     0.014 C 
HETATM   36  C   UNL     1      13.085  -0.657   5.980  1.00  0.00     0.012 C 
BRANCH  35  37
HETATM   37  C   UNL     1      13.803  -3.063   5.987  1.00  0.00     0.002 C 
HETATM   38  C   UNL     1      13.925  -2.834   7.487  1.00  0.00     0.005 C 
ENDBRANCH  35  37
ENDBRANCH  13  35
BRANCH  17  39
HETATM   39  C   UNL     1       7.767  -1.617  -1.938  1.00  0.00     0.016 C 
HETATM   40  C   UNL     1       6.982  -0.813  -0.905  1.00  0.00     0.012 C 
HETATM   41  C   UNL     1       6.992  -2.867  -2.348  1.00  0.00     0.012 C 
ENDBRANCH  17  39
BRANCH  18  42
HETATM   42  C   UNL     1      14.761  -0.437   0.061  1.00  0.00     0.016 C 
HETATM   43  C   UNL     1      15.075  -1.898  -0.263  1.00  0.00     0.012 C 
HETATM   44  C   UNL     1      15.075   0.456  -1.138  1.00  0.00     0.012 C 
ENDBRANCH  18  42
BRANCH  16  45
HETATM   45  C   UNL     1       9.256   1.051   1.721  1.00  0.00     0.010 C 
HETATM   46  C   UNL     1       8.672  -0.055   2.599  1.00  0.00     0.012 C 
HETATM   47  C   UNL     1       8.194   1.590   0.764  1.00  0.00     0.012 C 
ENDBRANCH  16  45
TORSDOF 8
ENDMDL
MODEL 5
REMARK VINA RESULT:    -6.679      2.310      6.763
REMARK INTER + INTRA:          -3.170
REMARK INTER:                  -4.727
REMARK INTRA:                   1.558
REMARK UNBOUND:                 6.632
REMARK  8 active torsions:
REMARK  status: ('A' for Active; 'I' for Inactive)
REMARK    1  A    between atoms: C_13  and  C_15 
REMARK    2  A    between atoms: C_14  and  C_16 
REMARK    3  A    between atoms: C_15  and  C_22 
REMARK    4  A    between atoms: C_16  and  C_23 
REMARK    5  A    between atoms: C_17  and  C_21 
REMARK    6  A    between atoms: C_18  and  C_24 
REMARK    7  A    between atoms: C_19  and  C_27 
REMARK    8  A    between atoms: C_20  and  C_30 
ROOT
HETATM    1  O   UNL     1       9.762  -4.061   0.719  1.00  0.00    -0.304 OA
HETATM    2  O   UNL     1      13.218  -0.872   1.874  1.00  0.00    -0.304 OA
HETATM    3  O   UNL     1       9.678   0.990   1.209  1.00  0.00    -0.304 OA
HETATM    4  O   UNL     1      10.620  -2.522   2.678  1.00  0.00    -0.270 OA
HETATM    5  O   UNL     1      10.818  -2.869  -0.951  1.00  0.00    -0.263 OA
HETATM    6  O   UNL     1       8.039  -1.017   1.253  1.00  0.00    -0.270 OA
HETATM    7  O   UNL     1      14.704  -0.432   3.575  1.00  0.00    -0.263 OA
HETATM    8  O   UNL     1      15.075   2.028   1.697  1.00  0.00    -0.270 OA
HETATM    9  O   UNL     1      10.917   2.730   0.338  1.00  0.00    -0.263 OA
HETATM   10  N   UNL     1      12.788  -3.345   2.725  1.00  0.00    -0.340 N 
HETATM   11  N   UNL     1       8.420  -1.409  -1.002  1.00  0.00    -0.340 N 
HETATM   12  N   UNL     1      12.848   2.278   2.290  1.00  0.00    -0.340 N 
HETATM   13  C   UNL     1      13.212  -2.347   3.735  1.00  0.00     0.190 C 
HETATM   14  C   UNL     1       8.388  -2.869  -0.788  1.00  0.00     0.190 C 
HETATM   15  C   UNL     1      11.026  -4.438   1.301  1.00  0.00     0.227 C 
HETATM   16  C   UNL     1      11.493   1.721   2.489  1.00  0.00     0.190 C 
HETATM   17  C   UNL     1       8.898   0.829   0.005  1.00  0.00     0.227 C 
HETATM   18  C   UNL     1      13.627   0.221   1.046  1.00  0.00     0.227 C 
HETATM   19  C   UNL     1      11.454  -3.348   2.289  1.00  0.00     0.250 C 
HETATM   20  C   UNL     1       9.804  -3.250  -0.380  1.00  0.00     0.283 C 
HETATM   21  C   UNL     1       8.387  -0.599   0.143  1.00  0.00     0.250 C 
HETATM   22  C   UNL     1      13.842  -1.131   3.056  1.00  0.00     0.283 C 
HETATM   23  C   UNL     1      13.924   1.579   1.721  1.00  0.00     0.250 C 
HETATM   24  C   UNL     1      10.689   1.907   1.212  1.00  0.00     0.283 C 
HETATM   25  C   UNL     1      13.837  -4.224   2.195  1.00  0.00     0.153 C 
HETATM   26  C   UNL     1       8.628  -0.895  -2.358  1.00  0.00     0.153 C 
HETATM   27  C   UNL     1      13.082   3.657   2.721  1.00  0.00     0.153 C 
ENDROOT
BRANCH  15  28
HETATM   28  C   UNL     1      10.803  -5.754   2.035  1.00  0.00     0.016 C 
HETATM   29  C   UNL     1      10.564  -5.507   3.523  1.00  0.00     0.012 C 
HETATM   30  C   UNL     1       9.632  -6.521   1.424  1.00  0.00     0.012 C 
ENDBRANCH  15  28
BRANCH  14  31
HETATM   31  C   UNL     1       7.947  -3.720  -1.971  1.00  0.00     0.014 C 
HETATM   32  C   UNL     1       8.877  -4.927  -2.115  1.00  0.00     0.012 C 
BRANCH  31  33
HETATM   33  C   UNL     1       6.490  -4.197  -1.838  1.00  0.00     0.002 C 
HETATM   34  C   UNL     1       6.362  -5.653  -1.410  1.00  0.00     0.005 C 
ENDBRANCH  31  33
ENDBRANCH  14  31
BRANCH  13  35
HETATM   35  C   UNL     1      14.128  -2.925   4.812  1.00  0.00     0.014 C 
HETATM   36  C   UNL     1      14.377  -1.875   5.899  1.00  0.00     0.012 C 
BRANCH  35  37
HETATM   37  C   UNL     1      13.554  -4.204   5.447  1.00  0.00     0.002 C 
HETATM   38  C   UNL     1      14.386  -5.448   5.169  1.00  0.00     0.005 C 
ENDBRANCH  35  37
ENDBRANCH  13  35
BRANCH  17  39
HETATM   39  C   UNL     1       7.743   1.814  -0.009  1.00  0.00     0.016 C 
HETATM   40  C   UNL     1       6.459   1.129  -0.468  1.00  0.00     0.012 C 
HETATM   41  C   UNL     1       8.066   3.007  -0.907  1.00  0.00     0.012 C 
ENDBRANCH  17  39
BRANCH  18  42
HETATM   42  C   UNL     1      14.812  -0.256   0.205  1.00  0.00     0.016 C 
HETATM   43  C   UNL     1      14.567  -1.671  -0.319  1.00  0.00     0.012 C 
HETATM   44  C   UNL     1      15.074   0.705  -0.952  1.00  0.00     0.012 C 
ENDBRANCH  18  42
BRANCH  16  45
HETATM   45  C   UNL     1      10.726   2.295   3.679  1.00  0.00     0.010 C 
HETATM   46  C   UNL     1       9.991   1.186   4.432  1.00  0.00     0.012 C 
HETATM   47  C   UNL     1       9.742   3.371   3.221  1.00  0.00     0.012 C 
ENDBRANCH  16  45
TORSDOF 8
ENDMDL
MODEL 6
REMARK VINA RESULT:    -6.645      2.289      7.134
REMARK INTER + INTRA:          -3.120
REMARK INTER:                  -4.271
REMARK INTRA:                   1.152
REMARK UNBOUND:                 6.632
REMARK  8 active torsions:
REMARK  status: ('A' for Active; 'I' for Inactive)
REMARK    1  A    between atoms: C_13  and  C_15 
REMARK    2  A    between atoms: C_14  and  C_16 
REMARK    3  A    between atoms: C_15  and  C_22 
REMARK    4  A    between atoms: C_16  and  C_23 
REMARK    5  A    between atoms: C_17  and  C_21 
REMARK    6  A    between atoms: C_18  and  C_24 
REMARK    7  A    between atoms: C_19  and  C_27 
REMARK    8  A    between atoms: C_20  and  C_30 
ROOT
HETATM    1  O   UNL     1      12.687  -4.228   2.636  1.00  0.00    -0.304 OA
HETATM    2  O   UNL     1      12.489   0.597   2.274  1.00  0.00    -0.304 OA
HETATM    3  O   UNL     1       9.895  -1.166  -0.296  1.00  0.00    -0.304 OA
HETATM    4  O   UNL     1      11.210  -2.141   3.269  1.00  0.00    -0.270 OA
HETATM    5  O   UNL     1      13.815  -3.165   0.927  1.00  0.00    -0.263 OA
HETATM    6  O   UNL     1       9.849  -3.589   0.622  1.00  0.00    -0.270 OA
HETATM    7  O   UNL     1      12.080   2.441   3.590  1.00  0.00    -0.263 OA
HETATM    8  O   UNL     1      12.322   3.680   0.740  1.00  0.00    -0.270 OA
HETATM    9  O   UNL     1      10.360   0.574  -1.737  1.00  0.00    -0.263 OA
HETATM   10  N   UNL     1      12.876  -0.969   4.378  1.00  0.00    -0.340 N 
HETATM   11  N   UNL     1      11.708  -4.135  -0.655  1.00  0.00    -0.340 N 
HETATM   12  N   UNL     1      10.486   2.295   0.446  1.00  0.00    -0.340 N 
HETATM   13  C   UNL     1      12.004   0.215   4.567  1.00  0.00     0.190 C 
HETATM   14  C   UNL     1      12.254  -4.968   0.434  1.00  0.00     0.190 C 
HETATM   15  C   UNL     1      13.255  -3.336   3.616  1.00  0.00     0.227 C 
HETATM   16  C   UNL     1       9.814   0.988   0.609  1.00  0.00     0.190 C 
HETATM   17  C   UNL     1      10.275  -2.176  -1.255  1.00  0.00     0.227 C 
HETATM   18  C   UNL     1      12.738   1.335   1.074  1.00  0.00     0.227 C 
HETATM   19  C   UNL     1      12.355  -2.100   3.731  1.00  0.00     0.250 C 
HETATM   20  C   UNL     1      13.025  -4.008   1.330  1.00  0.00     0.283 C 
HETATM   21  C   UNL     1      10.567  -3.374  -0.361  1.00  0.00     0.250 C 
HETATM   22  C   UNL     1      12.231   1.234   3.451  1.00  0.00     0.283 C 
HETATM   23  C   UNL     1      11.832   2.545   0.757  1.00  0.00     0.250 C 
HETATM   24  C   UNL     1      10.059   0.146  -0.633  1.00  0.00     0.283 C 
HETATM   25  C   UNL     1      14.266  -0.834   4.827  1.00  0.00     0.153 C 
HETATM   26  C   UNL     1      12.453  -4.034  -1.912  1.00  0.00     0.153 C 
HETATM   27  C   UNL     1       9.688   3.405  -0.075  1.00  0.00     0.153 C 
ENDROOT
BRANCH  15  28
HETATM   28  C   UNL     1      13.284  -4.089   4.939  1.00  0.00     0.016 C 
HETATM   29  C   UNL     1      12.439  -5.359   4.857  1.00  0.00     0.012 C 
HETATM   30  C   UNL     1      14.720  -4.427   5.336  1.00  0.00     0.012 C 
ENDBRANCH  15  28
BRANCH  14  31
HETATM   31  C   UNL     1      13.155  -6.123   0.021  1.00  0.00     0.014 C 
HETATM   32  C   UNL     1      14.172  -6.407   1.129  1.00  0.00     0.012 C 
BRANCH  31  33
HETATM   33  C   UNL     1      12.359  -7.401  -0.297  1.00  0.00     0.002 C 
HETATM   34  C   UNL     1      12.495  -7.859  -1.743  1.00  0.00     0.005 C 
ENDBRANCH  31  33
ENDBRANCH  14  31
BRANCH  13  35
HETATM   35  C   UNL     1      12.142   0.856   5.947  1.00  0.00     0.014 C 
HETATM   36  C   UNL     1      11.457   2.225   5.954  1.00  0.00     0.012 C 
BRANCH  35  37
HETATM   37  C   UNL     1      11.556  -0.024   7.066  1.00  0.00     0.002 C 
HETATM   38  C   UNL     1      12.435  -0.101   8.305  1.00  0.00     0.005 C 
ENDBRANCH  35  37
ENDBRANCH  13  35
BRANCH  17  39
HETATM   39  C   UNL     1       9.118  -2.473  -2.191  1.00  0.00     0.016 C 
HETATM   40  C   UNL     1       7.817  -2.618  -1.406  1.00  0.00     0.012 C 
HETATM   41  C   UNL     1       9.397  -3.734  -3.006  1.00  0.00     0.012 C 
ENDBRANCH  17  39
BRANCH  18  42
HETATM   42  C   UNL     1      14.216   1.728   1.074  1.00  0.00     0.016 C 
HETATM   43  C   UNL     1      15.075   0.602   1.649  1.00  0.00     0.012 C 
HETATM   44  C   UNL     1      14.679   2.085  -0.337  1.00  0.00     0.012 C 
ENDBRANCH  18  42
BRANCH  16  45
HETATM   45  C   UNL     1       8.317   1.063   0.904  1.00  0.00     0.010 C 
HETATM   46  C   UNL     1       7.937   0.088   2.019  1.00  0.00     0.012 C 
HETATM   47  C   UNL     1       7.502   0.776  -0.356  1.00  0.00     0.012 C 
ENDBRANCH  16  45
TORSDOF 8
ENDMDL
MODEL 7
REMARK VINA RESULT:    -6.288      1.827      6.166
REMARK INTER + INTRA:          -2.597
REMARK INTER:                  -6.019
REMARK INTRA:                   3.423
REMARK UNBOUND:                 6.632
REMARK  8 active torsions:
REMARK  status: ('A' for Active; 'I' for Inactive)
REMARK    1  A    between atoms: C_13  and  C_15 
REMARK    2  A    between atoms: C_14  and  C_16 
REMARK    3  A    between atoms: C_15  and  C_22 
REMARK    4  A    between atoms: C_16  and  C_23 
REMARK    5  A    between atoms: C_17  and  C_21 
REMARK    6  A    between atoms: C_18  and  C_24 
REMARK    7  A    between atoms: C_19  and  C_27 
REMARK    8  A    between atoms: C_20  and  C_30 
ROOT
HETATM    1  O   UNL     1      10.684   0.325   1.151  1.00  0.00    -0.304 OA
HETATM    2  O   UNL     1      12.443  -4.091   0.229  1.00  0.00    -0.304 OA
HETATM    3  O   UNL     1      12.776  -3.181   4.166  1.00  0.00    -0.304 OA
HETATM    4  O   UNL     1      10.144  -2.240   1.415  1.00  0.00    -0.270 OA
HETATM    5  O   UNL     1      12.961   0.029   0.923  1.00  0.00    -0.263 OA
HETATM    6  O   UNL     1      11.219  -1.117   4.337  1.00  0.00    -0.270 OA
HETATM    7  O   UNL     1      11.764  -6.100  -0.665  1.00  0.00    -0.263 OA
HETATM    8  O   UNL     1      14.621  -6.759   0.393  1.00  0.00    -0.270 OA
HETATM    9  O   UNL     1      14.740  -4.391   4.135  1.00  0.00    -0.263 OA
HETATM   10  N   UNL     1      10.389  -2.789  -0.826  1.00  0.00    -0.340 N 
HETATM   11  N   UNL     1      12.964   0.282   3.719  1.00  0.00    -0.340 N 
HETATM   12  N   UNL     1      13.556  -6.189   2.372  1.00  0.00    -0.340 N 
HETATM   13  C   UNL     1      10.206  -4.235  -0.555  1.00  0.00     0.190 C 
HETATM   14  C   UNL     1      12.054   1.113   2.906  1.00  0.00     0.190 C 
HETATM   15  C   UNL     1      10.431  -0.388  -0.076  1.00  0.00     0.227 C 
HETATM   16  C   UNL     1      12.687  -5.289   3.159  1.00  0.00     0.190 C 
HETATM   17  C   UNL     1      13.418  -1.988   4.664  1.00  0.00     0.227 C 
HETATM   18  C   UNL     1      13.785  -4.507   0.500  1.00  0.00     0.227 C 
HETATM   19  C   UNL     1      10.313  -1.883   0.243  1.00  0.00     0.250 C 
HETATM   20  C   UNL     1      11.988   0.430   1.547  1.00  0.00     0.283 C 
HETATM   21  C   UNL     1      12.433  -0.900   4.256  1.00  0.00     0.250 C 
HETATM   22  C   UNL     1      11.560  -4.925  -0.387  1.00  0.00     0.283 C 
HETATM   23  C   UNL     1      14.011  -5.924   1.070  1.00  0.00     0.250 C 
HETATM   24  C   UNL     1      13.553  -4.265   3.875  1.00  0.00     0.283 C 
HETATM   25  C   UNL     1      10.714  -2.419  -2.207  1.00  0.00     0.153 C 
HETATM   26  C   UNL     1      14.379   0.649   3.799  1.00  0.00     0.153 C 
HETATM   27  C   UNL     1      13.970  -7.446   2.996  1.00  0.00     0.153 C 
ENDROOT
BRANCH  15  28
HETATM   28  C   UNL     1       9.113   0.135  -0.632  1.00  0.00     0.016 C 
HETATM   29  C   UNL     1       7.969  -0.139   0.343  1.00  0.00     0.012 C 
HETATM   30  C   UNL     1       9.211   1.629  -0.935  1.00  0.00     0.012 C 
ENDBRANCH  15  28
BRANCH  14  31
HETATM   31  C   UNL     1      12.444   2.575   2.729  1.00  0.00     0.014 C 
HETATM   32  C   UNL     1      12.115   3.028   1.305  1.00  0.00     0.012 C 
BRANCH  31  33
HETATM   33  C   UNL     1      11.744   3.494   3.745  1.00  0.00     0.002 C 
HETATM   34  C   UNL     1      10.504   2.873   4.375  1.00  0.00     0.005 C 
ENDBRANCH  31  33
ENDBRANCH  14  31
BRANCH  13  35
HETATM   35  C   UNL     1       9.342  -4.943  -1.598  1.00  0.00     0.014 C 
HETATM   36  C   UNL     1       8.662  -6.161  -0.967  1.00  0.00     0.012 C 
BRANCH  35  37
HETATM   37  C   UNL     1       8.279  -4.013  -2.209  1.00  0.00     0.002 C 
HETATM   38  C   UNL     1       6.971  -3.989  -1.433  1.00  0.00     0.005 C 
ENDBRANCH  35  37
ENDBRANCH  13  35
BRANCH  17  39
HETATM   39  C   UNL     1      13.551  -2.054   6.175  1.00  0.00     0.016 C 
HETATM   40  C   UNL     1      12.866  -0.856   6.827  1.00  0.00     0.012 C 
HETATM   41  C   UNL     1      15.021  -2.119   6.582  1.00  0.00     0.012 C 
ENDBRANCH  17  39
BRANCH  18  42
HETATM   42  C   UNL     1      14.604  -4.278  -0.771  1.00  0.00     0.016 C 
HETATM   43  C   UNL     1      14.008  -5.055  -1.945  1.00  0.00     0.012 C 
HETATM   44  C   UNL     1      14.684  -2.789  -1.101  1.00  0.00     0.012 C 
ENDBRANCH  18  42
BRANCH  16  45
HETATM   45  C   UNL     1      11.768  -5.988   4.158  1.00  0.00     0.010 C 
HETATM   46  C   UNL     1      12.066  -7.486   4.211  1.00  0.00     0.012 C 
HETATM   47  C   UNL     1      10.301  -5.749   3.803  1.00  0.00     0.012 C 
ENDBRANCH  16  45
TORSDOF 8
ENDMDL
MODEL 8
REMARK VINA RESULT:    -5.017      2.098      8.270
REMARK INTER + INTRA:          -0.730
REMARK INTER:                  -3.296
REMARK INTRA:                   2.565
REMARK UNBOUND:                 6.632
REMARK  8 active torsions:
REMARK  status: ('A' for Active; 'I' for Inactive)
REMARK    1  A    between atoms: C_13  and  C_15 
REMARK    2  A    between atoms: C_14  and  C_16 
REMARK    3  A    between atoms: C_15  and  C_22 
REMARK    4  A    between atoms: C_16  and  C_23 
REMARK    5  A    between atoms: C_17  and  C_21 
REMARK    6  A    between atoms: C_18  and  C_24 
REMARK    7  A    between atoms: C_19  and  C_27 
REMARK    8  A    between atoms: C_20  and  C_30 
ROOT
HETATM    1  O   UNL     1      10.539  -3.207  -0.131  1.00  0.00    -0.304 OA
HETATM    2  O   UNL     1      10.278   0.365   3.128  1.00  0.00    -0.304 OA
HETATM    3  O   UNL     1      13.447  -2.054   3.866  1.00  0.00    -0.304 OA
HETATM    4  O   UNL     1      11.654  -0.924   0.566  1.00  0.00    -0.270 OA
HETATM    5  O   UNL     1       9.613  -3.619   1.942  1.00  0.00    -0.263 OA
HETATM    6  O   UNL     1      13.595  -3.379   1.644  1.00  0.00    -0.270 OA
HETATM    7  O   UNL     1      10.255   2.665   3.215  1.00  0.00    -0.263 OA
HETATM    8  O   UNL     1      10.374   1.873   6.227  1.00  0.00    -0.270 OA
HETATM    9  O   UNL     1      13.053  -1.654   6.103  1.00  0.00    -0.263 OA
HETATM   10  N   UNL     1       9.706   0.336   0.540  1.00  0.00    -0.340 N 
HETATM   11  N   UNL     1      12.051  -4.922   2.432  1.00  0.00    -0.340 N 
HETATM   12  N   UNL     1      12.371   0.969   5.472  1.00  0.00    -0.340 N 
HETATM   13  C   UNL     1      10.401   1.535   1.066  1.00  0.00     0.190 C 
HETATM   14  C   UNL     1      11.420  -5.020   1.102  1.00  0.00     0.190 C 
HETATM   15  C   UNL     1       9.719  -2.034  -0.305  1.00  0.00     0.227 C 
HETATM   16  C   UNL     1      13.141   0.179   4.488  1.00  0.00     0.190 C 
HETATM   17  C   UNL     1      13.348  -3.487   4.016  1.00  0.00     0.227 C 
HETATM   18  C   UNL     1      10.161   0.172   4.541  1.00  0.00     0.227 C 
HETATM   19  C   UNL     1      10.448  -0.832   0.309  1.00  0.00     0.250 C 
HETATM   20  C   UNL     1      10.408  -3.883   1.050  1.00  0.00     0.283 C 
HETATM   21  C   UNL     1      13.037  -3.937   2.595  1.00  0.00     0.250 C 
HETATM   22  C   UNL     1      10.261   1.614   2.586  1.00  0.00     0.283 C 
HETATM   23  C   UNL     1      10.973   1.095   5.477  1.00  0.00     0.250 C 
HETATM   24  C   UNL     1      13.204  -1.267   4.954  1.00  0.00     0.283 C 
HETATM   25  C   UNL     1       8.254   0.445   0.369  1.00  0.00     0.153 C 
HETATM   26  C   UNL     1      11.527  -5.739   3.529  1.00  0.00     0.153 C 
HETATM   27  C   UNL     1      13.123   1.671   6.512  1.00  0.00     0.153 C 
ENDROOT
BRANCH  15  28
HETATM   28  C   UNL     1       9.544  -1.831  -1.804  1.00  0.00     0.016 C 
HETATM   29  C   UNL     1      10.810  -1.236  -2.419  1.00  0.00     0.012 C 
HETATM   30  C   UNL     1       9.185  -3.149  -2.489  1.00  0.00     0.012 C 
ENDBRANCH  15  28
BRANCH  14  31
HETATM   31  C   UNL     1      10.731  -6.337   0.771  1.00  0.00     0.014 C 
HETATM   32  C   UNL     1       9.224  -6.205   1.002  1.00  0.00     0.012 C 
BRANCH  31  33
HETATM   33  C   UNL     1      11.000  -6.790  -0.675  1.00  0.00     0.002 C 
HETATM   34  C   UNL     1       9.753  -7.271  -1.405  1.00  0.00     0.005 C 
ENDBRANCH  31  33
ENDBRANCH  14  31
BRANCH  13  35
HETATM   35  C   UNL     1       9.960   2.835   0.394  1.00  0.00     0.014 C 
HETATM   36  C   UNL     1      11.185   3.700   0.085  1.00  0.00     0.012 C 
BRANCH  35  37
HETATM   37  C   UNL     1       9.160   2.587  -0.897  1.00  0.00     0.002 C 
HETATM   38  C   UNL     1       9.332   3.681  -1.940  1.00  0.00     0.005 C 
ENDBRANCH  35  37
ENDBRANCH  13  35
BRANCH  17  39
HETATM   39  C   UNL     1      14.674  -4.059   4.484  1.00  0.00     0.016 C 
HETATM   40  C   UNL     1      15.075  -5.255   3.624  1.00  0.00     0.012 C 
HETATM   41  C   UNL     1      14.597  -4.458   5.956  1.00  0.00     0.012 C 
ENDBRANCH  17  39
BRANCH  18  42
HETATM   42  C   UNL     1       8.671   0.196   4.887  1.00  0.00     0.016 C 
HETATM   43  C   UNL     1       7.856  -0.532   3.818  1.00  0.00     0.012 C 
HETATM   44  C   UNL     1       8.426  -0.424   6.261  1.00  0.00     0.012 C 
ENDBRANCH  18  42
BRANCH  16  45
HETATM   45  C   UNL     1      14.548   0.698   4.200  1.00  0.00     0.010 C 
HETATM   46  C   UNL     1      14.565   2.226   4.170  1.00  0.00     0.012 C 
HETATM   47  C   UNL     1      15.075   0.132   2.882  1.00  0.00     0.012 C 
ENDBRANCH  16  45
TORSDOF 8
ENDMDL
MODEL 9
REMARK VINA RESULT:    -4.912      2.149      7.107
REMARK INTER + INTRA:          -0.578
REMARK INTER:                  -2.023
REMARK INTRA:                   1.445
REMARK UNBOUND:                 6.632
REMARK  8 active torsions:
REMARK  status: ('A' for Active; 'I' for Inactive)
REMARK    1  A    between atoms: C_13  and  C_15 
REMARK    2  A    between atoms: C_14  and  C_16 
REMARK    3  A    between atoms: C_15  and  C_22 
REMARK    4  A    between atoms: C_16  and  C_23 
REMARK    5  A    between atoms: C_17  and  C_21 
REMARK    6  A    between atoms: C_18  and  C_24 
REMARK    7  A    between atoms: C_19  and  C_27 
REMARK    8  A    between atoms: C_20  and  C_30 
ROOT
HETATM    1  O   UNL     1      12.634  -4.485   2.188  1.00  0.00    -0.304 OA
HETATM    2  O   UNL     1      12.898  -0.022   4.047  1.00  0.00    -0.304 OA
HETATM    3  O   UNL     1       9.570  -0.459   1.772  1.00  0.00    -0.304 OA
HETATM    4  O   UNL     1      11.602  -2.927   4.045  1.00  0.00    -0.270 OA
HETATM    5  O   UNL     1      13.420  -2.750   0.884  1.00  0.00    -0.263 OA
HETATM    6  O   UNL     1       9.479  -3.035   1.508  1.00  0.00    -0.270 OA
HETATM    7  O   UNL     1      13.036   1.022   6.094  1.00  0.00    -0.263 OA
HETATM    8  O   UNL     1      12.707   3.420   4.130  1.00  0.00    -0.270 OA
HETATM    9  O   UNL     1       9.859   1.750   1.175  1.00  0.00    -0.263 OA
HETATM   10  N   UNL     1      13.611  -2.365   5.059  1.00  0.00    -0.340 N 
HETATM   11  N   UNL     1      10.893  -2.923  -0.328  1.00  0.00    -0.340 N 
HETATM   12  N   UNL     1      10.711   2.297   3.767  1.00  0.00    -0.340 N 
HETATM   13  C   UNL     1      12.952  -1.406   5.976  1.00  0.00     0.190 C 
HETATM   14  C   UNL     1      11.592  -4.152   0.093  1.00  0.00     0.190 C 
HETATM   15  C   UNL     1      13.522  -4.127   3.265  1.00  0.00     0.227 C 
HETATM   16  C   UNL     1       9.957   1.051   3.515  1.00  0.00     0.190 C 
HETATM   17  C   UNL     1       9.586  -0.921   0.404  1.00  0.00     0.227 C 
HETATM   18  C   UNL     1      12.926   1.183   3.275  1.00  0.00     0.227 C 
HETATM   19  C   UNL     1      12.824  -3.087   4.149  1.00  0.00     0.250 C 
HETATM   20  C   UNL     1      12.664  -3.693   1.073  1.00  0.00     0.283 C 
HETATM   21  C   UNL     1       9.952  -2.390   0.566  1.00  0.00     0.250 C 
HETATM   22  C   UNL     1      13.011   0.011   5.404  1.00  0.00     0.283 C 
HETATM   23  C   UNL     1      12.112   2.395   3.780  1.00  0.00     0.250 C 
HETATM   24  C   UNL     1       9.793   0.866   2.015  1.00  0.00     0.283 C 
HETATM   25  C   UNL     1      15.075  -2.433   5.127  1.00  0.00     0.153 C 
HETATM   26  C   UNL     1      11.312  -2.255  -1.562  1.00  0.00     0.153 C 
HETATM   27  C   UNL     1       9.940   3.514   4.022  1.00  0.00     0.153 C 
ENDROOT
BRANCH  15  28
HETATM   28  C   UNL     1      13.791  -5.397   4.061  1.00  0.00     0.016 C 
HETATM   29  C   UNL     1      12.602  -6.352   3.971  1.00  0.00     0.012 C 
HETATM   30  C   UNL     1      15.065  -6.082   3.570  1.00  0.00     0.012 C 
ENDBRANCH  15  28
BRANCH  14  31
HETATM   31  C   UNL     1      12.228  -4.985  -1.012  1.00  0.00     0.014 C 
HETATM   32  C   UNL     1      13.629  -5.429  -0.583  1.00  0.00     0.012 C 
BRANCH  31  33
HETATM   33  C   UNL     1      11.380  -6.216  -1.378  1.00  0.00     0.002 C 
HETATM   34  C   UNL     1       9.886  -5.930  -1.438  1.00  0.00     0.005 C 
ENDBRANCH  31  33
ENDBRANCH  14  31
BRANCH  13  35
HETATM   35  C   UNL     1      13.496  -1.457   7.403  1.00  0.00     0.014 C 
HETATM   36  C   UNL     1      12.613  -0.614   8.326  1.00  0.00     0.012 C 
BRANCH  35  37
HETATM   37  C   UNL     1      13.590  -2.895   7.944  1.00  0.00     0.002 C 
HETATM   38  C   UNL     1      13.807  -2.966   9.449  1.00  0.00     0.005 C 
ENDBRANCH  35  37
ENDBRANCH  13  35
BRANCH  17  39
HETATM   39  C   UNL     1       8.209  -0.775  -0.216  1.00  0.00     0.016 C 
HETATM   40  C   UNL     1       7.794  -2.068  -0.913  1.00  0.00     0.012 C 
HETATM   41  C   UNL     1       8.182   0.396  -1.196  1.00  0.00     0.012 C 
ENDBRANCH  17  39
BRANCH  18  42
HETATM   42  C   UNL     1      14.393   1.550   3.048  1.00  0.00     0.016 C 
HETATM   43  C   UNL     1      15.070   0.529   2.133  1.00  0.00     0.012 C 
HETATM   44  C   UNL     1      14.513   2.955   2.461  1.00  0.00     0.012 C 
ENDBRANCH  18  42
BRANCH  16  45
HETATM   45  C   UNL     1       8.597   0.967   4.205  1.00  0.00     0.010 C 
HETATM   46  C   UNL     1       8.765   0.689   5.698  1.00  0.00     0.012 C 
HETATM   47  C   UNL     1       7.727  -0.109   3.556  1.00  0.00     0.012 C 
ENDBRANCH  16  45
TORSDOF 8
ENDMDL
