MODEL 1
REMARK VINA RESULT:    -5.144      0.000      0.000
REMARK INTER + INTRA:          -3.789
REMARK INTER:                  -5.237
REMARK INTRA:                   1.448
REMARK UNBOUND:                 3.160
REMARK  6 active torsions:
REMARK  status: ('A' for Active; 'I' for Inactive)
REMARK    1  A    between atoms: C_13  and  C_16 
REMARK    2  A    between atoms: C_14  and  C_17 
REMARK    3  A    between atoms: C_15  and  C_18 
REMARK    4  A    between atoms: C_19  and  C_22 
REMARK    5  A    between atoms: C_20  and  C_23 
REMARK    6  A    between atoms: C_21  and  C_24 
ROOT
HETATM    1  O   UNL     1      13.387  -3.879   3.875  1.00  0.00    -0.304 OA
HETATM    2  O   UNL     1      10.179  -3.500  -0.169  1.00  0.00    -0.304 OA
HETATM    3  O   UNL     1      12.519   0.426   1.043  1.00  0.00    -0.304 OA
HETATM    4  O   UNL     1      13.492  -3.771   1.287  1.00  0.00    -0.270 OA
HETATM    5  O   UNL     1      14.953  -1.348   2.102  1.00  0.00    -0.270 OA
HETATM    6  O   UNL     1       9.984  -0.793  -1.942  1.00  0.00    -0.270 OA
HETATM    7  O   UNL     1      11.551  -2.493   4.036  1.00  0.00    -0.263 OA
HETATM    8  O   UNL     1      11.153  -3.500  -2.255  1.00  0.00    -0.263 OA
HETATM    9  O   UNL     1      12.172   2.655   0.615  1.00  0.00    -0.263 OA
HETATM   10  N   UNL     1      11.808  -5.295   0.852  1.00  0.00    -0.340 N 
HETATM   11  N   UNL     1      13.541  -0.486   3.729  1.00  0.00    -0.340 N 
HETATM   12  N   UNL     1      10.043  -0.328   0.337  1.00  0.00    -0.340 N 
HETATM   13  C   UNL     1      11.948  -5.065  -0.602  1.00  0.00     0.190 C 
HETATM   14  C   UNL     1      13.771  -1.664   4.591  1.00  0.00     0.190 C 
HETATM   15  C   UNL     1      10.399   1.090   0.120  1.00  0.00     0.190 C 
HETATM   16  C   UNL     1      12.615  -4.900   3.205  1.00  0.00     0.227 C 
HETATM   17  C   UNL     1       9.172  -2.526  -0.492  1.00  0.00     0.227 C 
HETATM   18  C   UNL     1      13.846   0.694   1.535  1.00  0.00     0.227 C 
HETATM   19  C   UNL     1      12.676  -4.601   1.705  1.00  0.00     0.250 C 
HETATM   20  C   UNL     1      14.170  -0.468   2.471  1.00  0.00     0.250 C 
HETATM   21  C   UNL     1       9.778  -1.144  -0.777  1.00  0.00     0.250 C 
HETATM   22  C   UNL     1      12.751  -2.702   4.154  1.00  0.00     0.283 C 
HETATM   23  C   UNL     1      11.067  -3.925  -1.108  1.00  0.00     0.283 C 
HETATM   24  C   UNL     1      11.781   1.493   0.628  1.00  0.00     0.283 C 
HETATM   25  C   UNL     1      10.748  -6.202   1.302  1.00  0.00     0.153 C 
HETATM   26  C   UNL     1      12.646   0.563   4.227  1.00  0.00     0.153 C 
HETATM   27  C   UNL     1       9.810  -0.764   1.715  1.00  0.00     0.153 C 
ENDROOT
BRANCH  16  28
HETATM   28  C   UNL     1      13.283  -6.231   3.516  1.00  0.00     0.016 C 
HETATM   29  C   UNL     1      14.608  -6.013   4.244  1.00  0.00     0.012 C 
HETATM   30  C   UNL     1      12.357  -7.120   4.347  1.00  0.00     0.012 C 
ENDBRANCH  16  28
BRANCH  14  31
HETATM   31  C   UNL     1      13.667  -1.424   6.092  1.00  0.00     0.010 C 
HETATM   32  C   UNL     1      13.572  -2.750   6.842  1.00  0.00     0.012 C 
HETATM   33  C   UNL     1      14.859  -0.610   6.589  1.00  0.00     0.012 C 
ENDBRANCH  14  31
BRANCH  13  34
HETATM   34  C   UNL     1      11.710  -6.315  -1.449  1.00  0.00     0.010 C 
HETATM   35  C   UNL     1      12.948  -6.644  -2.283  1.00  0.00     0.012 C 
HETATM   36  C   UNL     1      10.491  -6.133  -2.351  1.00  0.00     0.012 C 
ENDBRANCH  13  34
BRANCH  18  37
HETATM   37  C   UNL     1      14.805   0.747   0.349  1.00  0.00     0.016 C 
HETATM   38  C   UNL     1      14.248  -0.051  -0.830  1.00  0.00     0.012 C 
HETATM   39  C   UNL     1      15.075   2.193  -0.064  1.00  0.00     0.012 C 
ENDBRANCH  18  37
BRANCH  17  40
HETATM   40  C   UNL     1       8.253  -3.010  -1.614  1.00  0.00     0.016 C 
HETATM   41  C   UNL     1       7.216  -1.943  -1.958  1.00  0.00     0.012 C 
HETATM   42  C   UNL     1       7.568  -4.318  -1.222  1.00  0.00     0.012 C 
ENDBRANCH  17  40
BRANCH  15  43
HETATM   43  C   UNL     1       9.328   2.024   0.685  1.00  0.00     0.010 C 
HETATM   44  C   UNL     1       9.890   2.840   1.847  1.00  0.00     0.012 C 
HETATM   45  C   UNL     1       8.790   2.943  -0.407  1.00  0.00     0.012 C 
ENDBRANCH  15  43
TORSDOF 6
ENDMDL
MODEL 2
REMARK VINA RESULT:    -3.808      1.911      8.040
REMARK INTER + INTRA:          -1.983
REMARK INTER:                  -4.002
REMARK INTRA:                   2.019
REMARK UNBOUND:                 3.160
REMARK  6 active torsions:
REMARK  status: ('A' for Active; 'I' for Inactive)
REMARK    1  A    between atoms: C_13  and  C_16 
REMARK    2  A    between atoms: C_14  and  C_17 
REMARK    3  A    between atoms: C_15  and  C_18 
REMARK    4  A    between atoms: C_19  and  C_22 
REMARK    5  A    between atoms: C_20  and  C_23 
REMARK    6  A    between atoms: C_21  and  C_24 
ROOT
HETATM    1  O   UNL     1       9.866   0.062  -0.121  1.00  0.00    -0.304 OA
HETATM    2  O   UNL     1      12.502  -0.203   4.325  1.00  0.00    -0.304 OA
HETATM    3  O   UNL     1      13.236  -3.697   1.226  1.00  0.00    -0.304 OA
HETATM    4  O   UNL     1      12.264   0.482   0.769  1.00  0.00    -0.270 OA
HETATM    5  O   UNL     1      12.662  -1.684  -1.185  1.00  0.00    -0.270 OA
HETATM    6  O   UNL     1      14.735  -2.493   4.848  1.00  0.00    -0.270 OA
HETATM    7  O   UNL     1       9.445  -1.689   1.320  1.00  0.00    -0.263 OA
HETATM    8  O   UNL     1      14.720   0.409   4.241  1.00  0.00    -0.263 OA
HETATM    9  O   UNL     1      14.080  -5.823   1.428  1.00  0.00    -0.263 OA
HETATM   10  N   UNL     1      11.679   1.667   2.668  1.00  0.00    -0.340 N 
HETATM   11  N   UNL     1      10.931  -3.125  -0.631  1.00  0.00    -0.340 N 
HETATM   12  N   UNL     1      12.821  -3.367   3.856  1.00  0.00    -0.340 N 
HETATM   13  C   UNL     1      13.098   1.757   3.072  1.00  0.00     0.190 C 
HETATM   14  C   UNL     1       9.927  -2.115  -1.027  1.00  0.00     0.190 C 
HETATM   15  C   UNL     1      13.507  -4.607   3.436  1.00  0.00     0.190 C 
HETATM   16  C   UNL     1       9.938   1.005   0.971  1.00  0.00     0.227 C 
HETATM   17  C   UNL     1      12.697  -1.288   5.248  1.00  0.00     0.227 C 
HETATM   18  C   UNL     1      13.321  -3.766  -0.210  1.00  0.00     0.227 C 
HETATM   19  C   UNL     1      11.390   1.022   1.457  1.00  0.00     0.250 C 
HETATM   20  C   UNL     1      12.287  -2.766  -0.722  1.00  0.00     0.250 C 
HETATM   21  C   UNL     1      13.522  -2.426   4.631  1.00  0.00     0.250 C 
HETATM   22  C   UNL     1       9.700  -1.255   0.204  1.00  0.00     0.283 C 
HETATM   23  C   UNL     1      13.545   0.575   3.929  1.00  0.00     0.283 C 
HETATM   24  C   UNL     1      13.631  -4.796   1.926  1.00  0.00     0.283 C 
HETATM   25  C   UNL     1      10.671   2.222   3.576  1.00  0.00     0.153 C 
HETATM   26  C   UNL     1      10.444  -4.417  -0.138  1.00  0.00     0.153 C 
HETATM   27  C   UNL     1      11.385  -3.266   3.591  1.00  0.00     0.153 C 
ENDROOT
BRANCH  16  28
HETATM   28  C   UNL     1       9.543   2.362   0.408  1.00  0.00     0.016 C 
HETATM   29  C   UNL     1      10.658   2.927  -0.471  1.00  0.00     0.012 C 
HETATM   30  C   UNL     1       8.239   2.261  -0.383  1.00  0.00     0.012 C 
ENDBRANCH  16  28
BRANCH  14  31
HETATM   31  C   UNL     1       8.600  -2.658  -1.542  1.00  0.00     0.010 C 
HETATM   32  C   UNL     1       7.560  -1.543  -1.624  1.00  0.00     0.012 C 
HETATM   33  C   UNL     1       8.784  -3.322  -2.905  1.00  0.00     0.012 C 
ENDBRANCH  14  31
BRANCH  13  34
HETATM   34  C   UNL     1      13.455   3.067   3.774  1.00  0.00     0.010 C 
HETATM   35  C   UNL     1      14.726   3.670   3.176  1.00  0.00     0.012 C 
HETATM   36  C   UNL     1      13.624   2.848   5.276  1.00  0.00     0.012 C 
ENDBRANCH  13  34
BRANCH  18  37
HETATM   37  C   UNL     1      14.736  -3.383  -0.635  1.00  0.00     0.016 C 
HETATM   38  C   UNL     1      15.075  -3.995  -1.994  1.00  0.00     0.012 C 
HETATM   39  C   UNL     1      14.894  -1.864  -0.678  1.00  0.00     0.012 C 
ENDBRANCH  18  37
BRANCH  17  40
HETATM   40  C   UNL     1      13.266  -0.803   6.582  1.00  0.00     0.016 C 
HETATM   41  C   UNL     1      13.706  -1.987   7.440  1.00  0.00     0.012 C 
HETATM   42  C   UNL     1      12.239   0.048   7.327  1.00  0.00     0.012 C 
ENDBRANCH  17  40
BRANCH  15  43
HETATM   43  C   UNL     1      12.870  -5.840   4.079  1.00  0.00     0.010 C 
HETATM   44  C   UNL     1      11.776  -6.406   3.177  1.00  0.00     0.012 C 
HETATM   45  C   UNL     1      13.929  -6.898   4.371  1.00  0.00     0.012 C 
ENDBRANCH  15  43
TORSDOF 6
ENDMDL
