MODEL 1
REMARK VINA RESULT:    -5.701      0.000      0.000
REMARK INTER + INTRA:          -3.836
REMARK INTER:                  -5.304
REMARK INTRA:                   1.468
REMARK UNBOUND:                 4.198
REMARK  7 active torsions:
REMARK  status: ('A' for Active; 'I' for Inactive)
REMARK    1  A    between atoms: C_13  and  C_14 
REMARK    2  A    between atoms: C_14  and  C_19 
REMARK    3  A    between atoms: C_15  and  C_20 
REMARK    4  A    between atoms: C_16  and  C_21 
REMARK    5  A    between atoms: C_17  and  C_23 
REMARK    6  A    between atoms: C_18  and  C_26 
REMARK    7  A    between atoms: C_22  and  C_28 
ROOT
HETATM    1  O   UNL     1      13.426  -3.769   3.863  1.00  0.00    -0.304 OA
HETATM    2  O   UNL     1      12.544   0.523   1.019  1.00  0.00    -0.304 OA
HETATM    3  O   UNL     1      10.195  -3.405  -0.163  1.00  0.00    -0.304 OA
HETATM    4  O   UNL     1      14.985  -1.248   2.071  1.00  0.00    -0.270 OA
HETATM    5  O   UNL     1      11.592  -2.381   4.031  1.00  0.00    -0.263 OA
HETATM    6  O   UNL     1      13.516  -3.673   1.274  1.00  0.00    -0.270 OA
HETATM    7  O   UNL     1       9.991  -0.705  -1.946  1.00  0.00    -0.270 OA
HETATM    8  O   UNL     1      12.198   2.752   0.583  1.00  0.00    -0.263 OA
HETATM    9  O   UNL     1      11.156  -3.414  -2.255  1.00  0.00    -0.263 OA
HETATM   10  N   UNL     1      13.582  -0.378   3.702  1.00  0.00    -0.340 N 
HETATM   11  N   UNL     1      11.827  -5.198   0.856  1.00  0.00    -0.340 N 
HETATM   12  N   UNL     1      10.065  -0.230   0.330  1.00  0.00    -0.340 N 
HETATM   13  C   UNL     1      13.816  -1.552   4.568  1.00  0.00     0.190 C 
HETATM   14  C   UNL     1      11.960  -4.973  -0.600  1.00  0.00     0.190 C 
HETATM   15  C   UNL     1      10.420   1.186   0.106  1.00  0.00     0.190 C 
HETATM   16  C   UNL     1      13.874   0.793   1.501  1.00  0.00     0.227 C 
HETATM   17  C   UNL     1      12.649  -4.793   3.203  1.00  0.00     0.227 C 
HETATM   18  C   UNL     1       9.185  -2.432  -0.484  1.00  0.00     0.227 C 
HETATM   19  C   UNL     1      14.203  -0.364   2.441  1.00  0.00     0.250 C 
HETATM   20  C   UNL     1      12.793  -2.591   4.141  1.00  0.00     0.283 C 
HETATM   21  C   UNL     1      12.702  -4.500   1.701  1.00  0.00     0.250 C 
HETATM   22  C   UNL     1       9.791  -1.051  -0.778  1.00  0.00     0.250 C 
HETATM   23  C   UNL     1      11.806   1.590   0.603  1.00  0.00     0.283 C 
HETATM   24  C   UNL     1      11.077  -3.835  -1.106  1.00  0.00     0.283 C 
HETATM   25  C   UNL     1      12.690   0.674   4.202  1.00  0.00     0.153 C 
HETATM   26  C   UNL     1      10.770  -6.101   1.316  1.00  0.00     0.153 C 
HETATM   27  C   UNL     1       9.839  -0.661   1.711  1.00  0.00     0.153 C 
ENDROOT
BRANCH  17  28
HETATM   28  C   UNL     1      13.318  -6.123   3.516  1.00  0.00     0.016 C 
HETATM   29  C   UNL     1      14.628  -5.904   4.271  1.00  0.00     0.012 C 
HETATM   30  C   UNL     1      12.380  -7.023   4.320  1.00  0.00     0.012 C 
ENDBRANCH  17  28
BRANCH  13  31
HETATM   31  C   UNL     1      13.721  -1.306   6.069  1.00  0.00     0.014 C 
HETATM   32  C   UNL     1      13.583  -2.638   6.807  1.00  0.00     0.012 C 
BRANCH  31  33
HETATM   33  C   UNL     1      14.941  -0.498   6.547  1.00  0.00     0.002 C 
HETATM   34  C   UNL     1      14.625   0.484   7.666  1.00  0.00     0.005 C 
ENDBRANCH  31  33
ENDBRANCH  13  31
BRANCH  14  35
HETATM   35  C   UNL     1      11.715  -6.227  -1.440  1.00  0.00     0.010 C 
HETATM   36  C   UNL     1      10.484  -6.051  -2.327  1.00  0.00     0.012 C 
HETATM   37  C   UNL     1      12.943  -6.555  -2.289  1.00  0.00     0.012 C 
ENDBRANCH  14  35
BRANCH  16  38
HETATM   38  C   UNL     1      14.827   0.840   0.310  1.00  0.00     0.016 C 
HETATM   39  C   UNL     1      15.067   2.283  -0.132  1.00  0.00     0.012 C 
HETATM   40  C   UNL     1      14.281   0.009  -0.850  1.00  0.00     0.012 C 
ENDBRANCH  16  38
BRANCH  18  41
HETATM   41  C   UNL     1       8.260  -2.919  -1.599  1.00  0.00     0.016 C 
HETATM   42  C   UNL     1       7.198  -1.869  -1.913  1.00  0.00     0.012 C 
HETATM   43  C   UNL     1       7.607  -4.245  -1.213  1.00  0.00     0.012 C 
ENDBRANCH  18  41
BRANCH  15  44
HETATM   44  C   UNL     1       9.353   2.123   0.673  1.00  0.00     0.010 C 
HETATM   45  C   UNL     1       8.813   3.042  -0.420  1.00  0.00     0.012 C 
HETATM   46  C   UNL     1       9.921   2.939   1.831  1.00  0.00     0.012 C 
ENDBRANCH  15  44
TORSDOF 7
ENDMDL
MODEL 2
REMARK VINA RESULT:    -5.168      1.997      7.647
REMARK INTER + INTRA:          -3.085
REMARK INTER:                  -5.948
REMARK INTRA:                   2.863
REMARK UNBOUND:                 4.198
REMARK  7 active torsions:
REMARK  status: ('A' for Active; 'I' for Inactive)
REMARK    1  A    between atoms: C_13  and  C_14 
REMARK    2  A    between atoms: C_14  and  C_19 
REMARK    3  A    between atoms: C_15  and  C_20 
REMARK    4  A    between atoms: C_16  and  C_21 
REMARK    5  A    between atoms: C_17  and  C_23 
REMARK    6  A    between atoms: C_18  and  C_26 
REMARK    7  A    between atoms: C_22  and  C_28 
ROOT
HETATM    1  O   UNL     1       8.796  -3.735  -1.288  1.00  0.00    -0.304 OA
HETATM    2  O   UNL     1      13.311  -4.028   1.324  1.00  0.00    -0.304 OA
HETATM    3  O   UNL     1      10.352  -0.521   2.457  1.00  0.00    -0.304 OA
HETATM    4  O   UNL     1      12.229  -3.976  -1.681  1.00  0.00    -0.270 OA
HETATM    5  O   UNL     1       9.081  -4.567   0.844  1.00  0.00    -0.263 OA
HETATM    6  O   UNL     1      10.435  -1.756  -0.954  1.00  0.00    -0.270 OA
HETATM    7  O   UNL     1      13.308  -0.737   3.770  1.00  0.00    -0.270 OA
HETATM    8  O   UNL     1      15.075  -5.012   2.419  1.00  0.00    -0.263 OA
HETATM    9  O   UNL     1      11.917   1.061   1.868  1.00  0.00    -0.263 OA
HETATM   10  N   UNL     1      11.414  -5.683  -0.336  1.00  0.00    -0.340 N 
HETATM   11  N   UNL     1       8.998  -0.365   0.208  1.00  0.00    -0.340 N 
HETATM   12  N   UNL     1      12.326  -2.830   3.510  1.00  0.00    -0.340 N 
HETATM   13  C   UNL     1      10.125  -5.671  -1.057  1.00  0.00     0.190 C 
HETATM   14  C   UNL     1      10.072   0.638   0.373  1.00  0.00     0.190 C 
HETATM   15  C   UNL     1      13.612  -3.542   3.660  1.00  0.00     0.190 C 
HETATM   16  C   UNL     1      13.675  -4.679   0.090  1.00  0.00     0.227 C 
HETATM   17  C   UNL     1       8.178  -2.530  -0.785  1.00  0.00     0.227 C 
HETATM   18  C   UNL     1      10.907  -0.778   3.759  1.00  0.00     0.227 C 
HETATM   19  C   UNL     1      12.386  -4.743  -0.724  1.00  0.00     0.250 C 
HETATM   20  C   UNL     1       9.273  -4.621  -0.364  1.00  0.00     0.283 C 
HETATM   21  C   UNL     1       9.302  -1.526  -0.518  1.00  0.00     0.250 C 
HETATM   22  C   UNL     1      12.293  -1.434   3.673  1.00  0.00     0.250 C 
HETATM   23  C   UNL     1      14.083  -4.290   2.415  1.00  0.00     0.283 C 
HETATM   24  C   UNL     1      10.900   0.416   1.636  1.00  0.00     0.283 C 
HETATM   25  C   UNL     1      11.578  -6.646   0.757  1.00  0.00     0.153 C 
HETATM   26  C   UNL     1       7.706  -0.096   0.843  1.00  0.00     0.153 C 
HETATM   27  C   UNL     1      11.114  -3.641   3.379  1.00  0.00     0.153 C 
ENDROOT
BRANCH  17  28
HETATM   28  C   UNL     1       7.252  -2.021  -1.880  1.00  0.00     0.016 C 
HETATM   29  C   UNL     1       6.495  -3.179  -2.528  1.00  0.00     0.012 C 
HETATM   30  C   UNL     1       6.273  -0.988  -1.322  1.00  0.00     0.012 C 
ENDBRANCH  17  28
BRANCH  13  31
HETATM   31  C   UNL     1       9.379  -6.999  -1.115  1.00  0.00     0.014 C 
HETATM   32  C   UNL     1       7.878  -6.761  -0.941  1.00  0.00     0.012 C 
BRANCH  31  33
HETATM   33  C   UNL     1       9.705  -7.728  -2.431  1.00  0.00     0.002 C 
HETATM   34  C   UNL     1      10.942  -8.612  -2.351  1.00  0.00     0.005 C 
ENDBRANCH  31  33
ENDBRANCH  13  31
BRANCH  14  35
HETATM   35  C   UNL     1       9.576   2.084   0.331  1.00  0.00     0.010 C 
HETATM   36  C   UNL     1      10.598   3.024   0.966  1.00  0.00     0.012 C 
HETATM   37  C   UNL     1       9.277   2.511  -1.106  1.00  0.00     0.012 C 
ENDBRANCH  14  35
BRANCH  16  38
HETATM   38  C   UNL     1      14.743  -3.841  -0.608  1.00  0.00     0.016 C 
HETATM   39  C   UNL     1      14.288  -2.389  -0.742  1.00  0.00     0.012 C 
HETATM   40  C   UNL     1      15.075  -4.427  -1.980  1.00  0.00     0.012 C 
ENDBRANCH  16  38
BRANCH  18  41
HETATM   41  C   UNL     1      10.899   0.472   4.638  1.00  0.00     0.016 C 
HETATM   42  C   UNL     1      11.389   0.142   6.046  1.00  0.00     0.012 C 
HETATM   43  C   UNL     1       9.501   1.085   4.686  1.00  0.00     0.012 C 
ENDBRANCH  18  41
BRANCH  15  44
HETATM   44  C   UNL     1      13.593  -4.476   4.870  1.00  0.00     0.010 C 
HETATM   45  C   UNL     1      14.819  -4.238   5.748  1.00  0.00     0.012 C 
HETATM   46  C   UNL     1      13.525  -5.932   4.420  1.00  0.00     0.012 C 
ENDBRANCH  15  44
TORSDOF 7
ENDMDL
MODEL 3
REMARK VINA RESULT:    -4.674      1.547      2.051
REMARK INTER + INTRA:          -2.389
REMARK INTER:                  -4.312
REMARK INTRA:                   1.924
REMARK UNBOUND:                 4.198
REMARK  7 active torsions:
REMARK  status: ('A' for Active; 'I' for Inactive)
REMARK    1  A    between atoms: C_13  and  C_14 
REMARK    2  A    between atoms: C_14  and  C_19 
REMARK    3  A    between atoms: C_15  and  C_20 
REMARK    4  A    between atoms: C_16  and  C_21 
REMARK    5  A    between atoms: C_17  and  C_23 
REMARK    6  A    between atoms: C_18  and  C_26 
REMARK    7  A    between atoms: C_22  and  C_28 
ROOT
HETATM    1  O   UNL     1      13.259  -1.706   5.144  1.00  0.00    -0.304 OA
HETATM    2  O   UNL     1      12.147   1.576   1.235  1.00  0.00    -0.304 OA
HETATM    3  O   UNL     1      11.062  -2.986   0.637  1.00  0.00    -0.304 OA
HETATM    4  O   UNL     1      14.602   0.751   3.105  1.00  0.00    -0.270 OA
HETATM    5  O   UNL     1      11.179  -0.850   4.639  1.00  0.00    -0.263 OA
HETATM    6  O   UNL     1      13.929  -2.083   2.669  1.00  0.00    -0.270 OA
HETATM    7  O   UNL     1      10.693  -0.827  -1.753  1.00  0.00    -0.270 OA
HETATM    8  O   UNL     1      11.432   3.508   0.218  1.00  0.00    -0.263 OA
HETATM    9  O   UNL     1      12.463  -3.135  -1.183  1.00  0.00    -0.263 OA
HETATM   10  N   UNL     1      12.700   1.510   4.198  1.00  0.00    -0.340 N 
HETATM   11  N   UNL     1      12.762  -4.053   2.335  1.00  0.00    -0.340 N 
HETATM   12  N   UNL     1      10.126   0.073   0.316  1.00  0.00    -0.340 N 
HETATM   13  C   UNL     1      12.978   0.626   5.349  1.00  0.00     0.190 C 
HETATM   14  C   UNL     1      13.179  -4.082   0.917  1.00  0.00     0.190 C 
HETATM   15  C   UNL     1      10.204   1.464  -0.178  1.00  0.00     0.190 C 
HETATM   16  C   UNL     1      13.235   2.276   1.869  1.00  0.00     0.227 C 
HETATM   17  C   UNL     1      12.903  -3.006   4.623  1.00  0.00     0.227 C 
HETATM   18  C   UNL     1       9.967  -2.396  -0.086  1.00  0.00     0.227 C 
HETATM   19  C   UNL     1      13.581   1.448   3.103  1.00  0.00     0.250 C 
HETATM   20  C   UNL     1      12.336  -0.709   5.010  1.00  0.00     0.283 C 
HETATM   21  C   UNL     1      13.241  -3.000   3.129  1.00  0.00     0.250 C 
HETATM   22  C   UNL     1      10.306  -0.985  -0.591  1.00  0.00     0.250 C 
HETATM   23  C   UNL     1      11.311   2.309   0.448  1.00  0.00     0.283 C 
HETATM   24  C   UNL     1      12.211  -3.336   0.000  1.00  0.00     0.283 C 
HETATM   25  C   UNL     1      11.508   2.361   4.260  1.00  0.00     0.153 C 
HETATM   26  C   UNL     1      11.852  -5.100   2.803  1.00  0.00     0.153 C 
HETATM   27  C   UNL     1       9.683  -0.132   1.696  1.00  0.00     0.153 C 
ENDROOT
BRANCH  17  28
HETATM   28  C   UNL     1      13.755  -4.026   5.363  1.00  0.00     0.016 C 
HETATM   29  C   UNL     1      15.075  -4.261   4.629  1.00  0.00     0.012 C 
HETATM   30  C   UNL     1      14.015  -3.573   6.799  1.00  0.00     0.012 C 
ENDBRANCH  17  28
BRANCH  13  31
HETATM   31  C   UNL     1      12.482   1.119   6.704  1.00  0.00     0.014 C 
HETATM   32  C   UNL     1      11.757  -0.012   7.435  1.00  0.00     0.012 C 
BRANCH  31  33
HETATM   33  C   UNL     1      13.659   1.681   7.521  1.00  0.00     0.002 C 
HETATM   34  C   UNL     1      13.308   1.987   8.970  1.00  0.00     0.005 C 
ENDBRANCH  31  33
ENDBRANCH  13  31
BRANCH  14  35
HETATM   35  C   UNL     1      13.420  -5.490   0.375  1.00  0.00     0.010 C 
HETATM   36  C   UNL     1      12.300  -5.900  -0.579  1.00  0.00     0.012 C 
HETATM   37  C   UNL     1      14.776  -5.576  -0.325  1.00  0.00     0.012 C 
ENDBRANCH  14  35
BRANCH  16  38
HETATM   38  C   UNL     1      14.406   2.348   0.892  1.00  0.00     0.016 C 
HETATM   39  C   UNL     1      14.432   3.700   0.180  1.00  0.00     0.012 C 
HETATM   40  C   UNL     1      14.332   1.209  -0.124  1.00  0.00     0.012 C 
ENDBRANCH  16  38
BRANCH  18  41
HETATM   41  C   UNL     1       9.459  -3.314  -1.197  1.00  0.00     0.016 C 
HETATM   42  C   UNL     1       8.430  -2.591  -2.063  1.00  0.00     0.012 C 
HETATM   43  C   UNL     1       8.862  -4.590  -0.608  1.00  0.00     0.012 C 
ENDBRANCH  18  41
BRANCH  15  44
HETATM   44  C   UNL     1       8.855   2.174  -0.055  1.00  0.00     0.010 C 
HETATM   45  C   UNL     1       7.713   1.207  -0.356  1.00  0.00     0.012 C 
HETATM   46  C   UNL     1       8.800   3.380  -0.987  1.00  0.00     0.012 C 
ENDBRANCH  15  44
TORSDOF 7
ENDMDL
MODEL 4
REMARK VINA RESULT:    -4.586      1.878      8.110
REMARK INTER + INTRA:          -2.264
REMARK INTER:                  -4.178
REMARK INTRA:                   1.913
REMARK UNBOUND:                 4.198
REMARK  7 active torsions:
REMARK  status: ('A' for Active; 'I' for Inactive)
REMARK    1  A    between atoms: C_13  and  C_14 
REMARK    2  A    between atoms: C_14  and  C_19 
REMARK    3  A    between atoms: C_15  and  C_20 
REMARK    4  A    between atoms: C_16  and  C_21 
REMARK    5  A    between atoms: C_17  and  C_23 
REMARK    6  A    between atoms: C_18  and  C_26 
REMARK    7  A    between atoms: C_22  and  C_28 
ROOT
HETATM    1  O   UNL     1       9.329  -2.329  -0.651  1.00  0.00    -0.304 OA
HETATM    2  O   UNL     1      13.575  -4.871   1.022  1.00  0.00    -0.304 OA
HETATM    3  O   UNL     1      12.339  -0.929   3.318  1.00  0.00    -0.304 OA
HETATM    4  O   UNL     1      12.344  -3.690  -1.678  1.00  0.00    -0.270 OA
HETATM    5  O   UNL     1       9.449  -3.707   1.194  1.00  0.00    -0.263 OA
HETATM    6  O   UNL     1      11.636  -1.225  -0.229  1.00  0.00    -0.270 OA
HETATM    7  O   UNL     1      15.075  -2.517   4.026  1.00  0.00    -0.270 OA
HETATM    8  O   UNL     1      14.899  -6.664   1.579  1.00  0.00    -0.263 OA
HETATM    9  O   UNL     1      14.342   0.073   2.785  1.00  0.00    -0.263 OA
HETATM   10  N   UNL     1      11.045  -5.262  -0.571  1.00  0.00    -0.340 N 
HETATM   11  N   UNL     1      10.966   0.257   1.415  1.00  0.00    -0.340 N 
HETATM   12  N   UNL     1      13.332  -3.979   3.539  1.00  0.00    -0.340 N 
HETATM   13  C   UNL     1       9.806  -4.606  -1.039  1.00  0.00     0.190 C 
HETATM   14  C   UNL     1      12.357   0.730   1.582  1.00  0.00     0.190 C 
HETATM   15  C   UNL     1      14.244  -5.121   3.319  1.00  0.00     0.190 C 
HETATM   16  C   UNL     1      13.546  -5.283  -0.359  1.00  0.00     0.227 C 
HETATM   17  C   UNL     1       9.279  -1.147   0.177  1.00  0.00     0.227 C 
HETATM   18  C   UNL     1      12.859  -1.683   4.427  1.00  0.00     0.227 C 
HETATM   19  C   UNL     1      12.270  -4.673  -0.932  1.00  0.00     0.250 C 
HETATM   20  C   UNL     1       9.498  -3.526  -0.016  1.00  0.00     0.283 C 
HETATM   21  C   UNL     1      10.726  -0.716   0.435  1.00  0.00     0.250 C 
HETATM   22  C   UNL     1      13.864  -2.752   3.973  1.00  0.00     0.250 C 
HETATM   23  C   UNL     1      14.274  -5.655   1.889  1.00  0.00     0.283 C 
HETATM   24  C   UNL     1      13.137  -0.082   2.613  1.00  0.00     0.283 C 
HETATM   25  C   UNL     1      10.912  -6.458   0.267  1.00  0.00     0.153 C 
HETATM   26  C   UNL     1       9.943   0.810   2.306  1.00  0.00     0.153 C 
HETATM   27  C   UNL     1      11.893  -4.237   3.465  1.00  0.00     0.153 C 
ENDROOT
BRANCH  17  28
HETATM   28  C   UNL     1       8.536  -0.083  -0.618  1.00  0.00     0.016 C 
HETATM   29  C   UNL     1       9.352   0.349  -1.835  1.00  0.00     0.012 C 
HETATM   30  C   UNL     1       7.161  -0.594  -1.049  1.00  0.00     0.012 C 
ENDBRANCH  17  28
BRANCH  13  31
HETATM   31  C   UNL     1       8.597  -5.517  -1.224  1.00  0.00     0.014 C 
HETATM   32  C   UNL     1       7.403  -4.700  -1.718  1.00  0.00     0.012 C 
BRANCH  31  33
HETATM   33  C   UNL     1       8.951  -6.671  -2.178  1.00  0.00     0.002 C 
HETATM   34  C   UNL     1       8.068  -7.900  -2.007  1.00  0.00     0.005 C 
ENDBRANCH  31  33
ENDBRANCH  13  31
BRANCH  14  35
HETATM   35  C   UNL     1      12.466   2.219   1.911  1.00  0.00     0.010 C 
HETATM   36  C   UNL     1      13.294   2.434   3.175  1.00  0.00     0.012 C 
HETATM   37  C   UNL     1      13.072   2.988   0.737  1.00  0.00     0.012 C 
ENDBRANCH  14  35
BRANCH  16  38
HETATM   38  C   UNL     1      14.792  -4.743  -1.056  1.00  0.00     0.016 C 
HETATM   39  C   UNL     1      14.705  -3.227  -1.221  1.00  0.00     0.012 C 
HETATM   40  C   UNL     1      14.985  -5.418  -2.413  1.00  0.00     0.012 C 
ENDBRANCH  16  38
BRANCH  18  41
HETATM   41  C   UNL     1      13.419  -0.774   5.521  1.00  0.00     0.016 C 
HETATM   42  C   UNL     1      14.106  -1.599   6.606  1.00  0.00     0.012 C 
HETATM   43  C   UNL     1      12.309   0.086   6.122  1.00  0.00     0.012 C 
ENDBRANCH  18  41
BRANCH  15  44
HETATM   44  C   UNL     1      13.965  -6.253   4.308  1.00  0.00     0.010 C 
HETATM   45  C   UNL     1      15.073  -6.333   5.354  1.00  0.00     0.012 C 
HETATM   46  C   UNL     1      13.820  -7.581   3.572  1.00  0.00     0.012 C 
ENDBRANCH  15  44
TORSDOF 7
ENDMDL
MODEL 5
REMARK VINA RESULT:    -3.733      1.789      8.185
REMARK INTER + INTRA:          -1.063
REMARK INTER:                  -3.899
REMARK INTRA:                   2.836
REMARK UNBOUND:                 4.198
REMARK  7 active torsions:
REMARK  status: ('A' for Active; 'I' for Inactive)
REMARK    1  A    between atoms: C_13  and  C_14 
REMARK    2  A    between atoms: C_14  and  C_19 
REMARK    3  A    between atoms: C_15  and  C_20 
REMARK    4  A    between atoms: C_16  and  C_21 
REMARK    5  A    between atoms: C_17  and  C_23 
REMARK    6  A    between atoms: C_18  and  C_26 
REMARK    7  A    between atoms: C_22  and  C_28 
ROOT
HETATM    1  O   UNL     1       9.815  -0.133  -0.088  1.00  0.00    -0.304 OA
HETATM    2  O   UNL     1      13.194  -3.926   1.132  1.00  0.00    -0.304 OA
HETATM    3  O   UNL     1      12.859  -0.258   4.095  1.00  0.00    -0.304 OA
HETATM    4  O   UNL     1      12.446  -2.020  -1.319  1.00  0.00    -0.270 OA
HETATM    5  O   UNL     1       9.486  -1.794   1.478  1.00  0.00    -0.263 OA
HETATM    6  O   UNL     1      12.297   0.255   0.547  1.00  0.00    -0.270 OA
HETATM    7  O   UNL     1      15.069  -2.590   4.526  1.00  0.00    -0.270 OA
HETATM    8  O   UNL     1      13.997  -6.066   1.365  1.00  0.00    -0.263 OA
HETATM    9  O   UNL     1      15.074   0.276   3.769  1.00  0.00    -0.263 OA
HETATM   10  N   UNL     1      10.737  -3.375  -0.526  1.00  0.00    -0.340 N 
HETATM   11  N   UNL     1      11.931   1.551   2.427  1.00  0.00    -0.340 N 
HETATM   12  N   UNL     1      13.045  -3.450   3.767  1.00  0.00    -0.340 N 
HETATM   13  C   UNL     1       9.729  -2.354  -0.878  1.00  0.00     0.190 C 
HETATM   14  C   UNL     1      13.384   1.616   2.689  1.00  0.00     0.190 C 
HETATM   15  C   UNL     1      13.654  -4.732   3.351  1.00  0.00     0.190 C 
HETATM   16  C   UNL     1      13.139  -4.070  -0.300  1.00  0.00     0.227 C 
HETATM   17  C   UNL     1      10.017   0.860   0.941  1.00  0.00     0.227 C 
HETATM   18  C   UNL     1      13.113  -1.300   5.053  1.00  0.00     0.227 C 
HETATM   19  C   UNL     1      12.088  -3.065  -0.764  1.00  0.00     0.250 C 
HETATM   20  C   UNL     1       9.645  -1.425   0.321  1.00  0.00     0.283 C 
HETATM   21  C   UNL     1      11.509   0.856   1.284  1.00  0.00     0.250 C 
HETATM   22  C   UNL     1      13.842  -2.495   4.421  1.00  0.00     0.250 C 
HETATM   23  C   UNL     1      13.627  -5.000   1.849  1.00  0.00     0.283 C 
HETATM   24  C   UNL     1      13.880   0.466   3.562  1.00  0.00     0.283 C 
HETATM   25  C   UNL     1      10.265  -4.624   0.080  1.00  0.00     0.153 C 
HETATM   26  C   UNL     1      11.031   2.183   3.395  1.00  0.00     0.153 C 
HETATM   27  C   UNL     1      11.594  -3.316   3.636  1.00  0.00     0.153 C 
ENDROOT
BRANCH  17  28
HETATM   28  C   UNL     1       9.607   2.200   0.346  1.00  0.00     0.016 C 
HETATM   29  C   UNL     1      10.836   3.061   0.057  1.00  0.00     0.012 C 
HETATM   30  C   UNL     1       8.786   1.996  -0.927  1.00  0.00     0.012 C 
ENDBRANCH  17  28
BRANCH  13  31
HETATM   31  C   UNL     1       8.343  -2.879  -1.235  1.00  0.00     0.014 C 
HETATM   32  C   UNL     1       7.386  -1.708  -1.462  1.00  0.00     0.012 C 
BRANCH  31  33
HETATM   33  C   UNL     1       8.432  -3.806  -2.461  1.00  0.00     0.002 C 
HETATM   34  C   UNL     1       7.672  -5.114  -2.296  1.00  0.00     0.005 C 
ENDBRANCH  31  33
ENDBRANCH  13  31
BRANCH  14  35
HETATM   35  C   UNL     1      13.844   2.948   3.283  1.00  0.00     0.010 C 
HETATM   36  C   UNL     1      14.249   2.776   4.745  1.00  0.00     0.012 C 
HETATM   37  C   UNL     1      15.001   3.530   2.472  1.00  0.00     0.012 C 
ENDBRANCH  14  35
BRANCH  16  38
HETATM   38  C   UNL     1      14.516  -3.754  -0.878  1.00  0.00     0.016 C 
HETATM   39  C   UNL     1      14.649  -2.261  -1.170  1.00  0.00     0.012 C 
HETATM   40  C   UNL     1      14.770  -4.572  -2.144  1.00  0.00     0.012 C 
ENDBRANCH  16  38
BRANCH  18  41
HETATM   41  C   UNL     1      13.821  -0.768   6.298  1.00  0.00     0.016 C 
HETATM   42  C   UNL     1      14.137  -1.907   7.265  1.00  0.00     0.012 C 
HETATM   43  C   UNL     1      12.970   0.298   6.985  1.00  0.00     0.012 C 
ENDBRANCH  18  41
BRANCH  15  44
HETATM   44  C   UNL     1      13.048  -5.909   4.116  1.00  0.00     0.010 C 
HETATM   45  C   UNL     1      14.141  -6.877   4.561  1.00  0.00     0.012 C 
HETATM   46  C   UNL     1      12.009  -6.625   3.259  1.00  0.00     0.012 C 
ENDBRANCH  15  44
TORSDOF 7
ENDMDL
MODEL 6
REMARK VINA RESULT:    -2.925      2.252      7.215
REMARK INTER + INTRA:           0.077
REMARK INTER:                  -4.660
REMARK INTRA:                   4.737
REMARK UNBOUND:                 4.198
REMARK  7 active torsions:
REMARK  status: ('A' for Active; 'I' for Inactive)
REMARK    1  A    between atoms: C_13  and  C_14 
REMARK    2  A    between atoms: C_14  and  C_19 
REMARK    3  A    between atoms: C_15  and  C_20 
REMARK    4  A    between atoms: C_16  and  C_21 
REMARK    5  A    between atoms: C_17  and  C_23 
REMARK    6  A    between atoms: C_18  and  C_26 
REMARK    7  A    between atoms: C_22  and  C_28 
ROOT
HETATM    1  O   UNL     1      13.375  -7.329   0.971  1.00  0.00    -0.304 OA
HETATM    2  O   UNL     1       9.135  -4.525  -0.233  1.00  0.00    -0.304 OA
HETATM    3  O   UNL     1      12.442  -2.455   2.436  1.00  0.00    -0.304 OA
HETATM    4  O   UNL     1       9.911  -7.367   1.002  1.00  0.00    -0.270 OA
HETATM    5  O   UNL     1      13.244  -5.689  -0.644  1.00  0.00    -0.263 OA
HETATM    6  O   UNL     1      11.927  -6.038   2.689  1.00  0.00    -0.270 OA
HETATM    7  O   UNL     1       9.625  -0.989   1.786  1.00  0.00    -0.270 OA
HETATM    8  O   UNL     1       7.422  -3.708  -1.528  1.00  0.00    -0.263 OA
HETATM    9  O   UNL     1      10.947  -2.170   4.162  1.00  0.00    -0.263 OA
HETATM   10  N   UNL     1      10.730  -6.923  -1.124  1.00  0.00    -0.340 N 
HETATM   11  N   UNL     1      13.572  -4.601   3.452  1.00  0.00    -0.340 N 
HETATM   12  N   UNL     1      10.420  -2.179  -0.048  1.00  0.00    -0.340 N 
HETATM   13  C   UNL     1      11.938  -7.731  -0.856  1.00  0.00     0.190 C 
HETATM   14  C   UNL     1      12.597  -3.921   4.331  1.00  0.00     0.190 C 
HETATM   15  C   UNL     1       9.106  -2.171  -0.725  1.00  0.00     0.190 C 
HETATM   16  C   UNL     1       8.603  -5.861  -0.319  1.00  0.00     0.227 C 
HETATM   17  C   UNL     1      14.127  -6.467   1.852  1.00  0.00     0.227 C 
HETATM   18  C   UNL     1      12.003  -1.306   1.688  1.00  0.00     0.227 C 
HETATM   19  C   UNL     1       9.795  -6.784  -0.082  1.00  0.00     0.250 C 
HETATM   20  C   UNL     1      12.930  -6.785  -0.200  1.00  0.00     0.283 C 
HETATM   21  C   UNL     1      13.112  -5.687   2.693  1.00  0.00     0.250 C 
HETATM   22  C   UNL     1      10.571  -1.479   1.161  1.00  0.00     0.250 C 
HETATM   23  C   UNL     1       8.459  -3.544  -0.893  1.00  0.00     0.283 C 
HETATM   24  C   UNL     1      11.885  -2.761   3.638  1.00  0.00     0.283 C 
HETATM   25  C   UNL     1      10.605  -6.294  -2.443  1.00  0.00     0.153 C 
HETATM   26  C   UNL     1      14.937  -4.073   3.406  1.00  0.00     0.153 C 
HETATM   27  C   UNL     1      11.549  -2.769  -0.769  1.00  0.00     0.153 C 
ENDROOT
BRANCH  17  28
HETATM   28  C   UNL     1      14.974  -7.371   2.736  1.00  0.00     0.016 C 
HETATM   29  C   UNL     1      14.399  -7.436   4.150  1.00  0.00     0.012 C 
HETATM   30  C   UNL     1      15.075  -8.773   2.135  1.00  0.00     0.012 C 
ENDBRANCH  17  28
BRANCH  13  31
HETATM   31  C   UNL     1      12.574  -8.404  -2.067  1.00  0.00     0.014 C 
HETATM   32  C   UNL     1      14.088  -8.497  -1.873  1.00  0.00     0.012 C 
BRANCH  31  33
HETATM   33  C   UNL     1      11.929  -9.781  -2.301  1.00  0.00     0.002 C 
HETATM   34  C   UNL     1      10.935  -9.804  -3.453  1.00  0.00     0.005 C 
ENDBRANCH  31  33
ENDBRANCH  13  31
BRANCH  14  35
HETATM   35  C   UNL     1      13.191  -3.443   5.656  1.00  0.00     0.010 C 
HETATM   36  C   UNL     1      14.316  -4.370   6.108  1.00  0.00     0.012 C 
HETATM   37  C   UNL     1      13.698  -2.006   5.533  1.00  0.00     0.012 C 
ENDBRANCH  14  35
BRANCH  16  38
HETATM   38  C   UNL     1       7.534  -6.033   0.758  1.00  0.00     0.016 C 
HETATM   39  C   UNL     1       7.953  -7.101   1.767  1.00  0.00     0.012 C 
HETATM   40  C   UNL     1       6.188  -6.389   0.130  1.00  0.00     0.012 C 
ENDBRANCH  16  38
BRANCH  18  41
HETATM   41  C   UNL     1      12.191  -0.010   2.475  1.00  0.00     0.016 C 
HETATM   42  C   UNL     1      11.436   1.137   1.807  1.00  0.00     0.012 C 
HETATM   43  C   UNL     1      13.674   0.328   2.607  1.00  0.00     0.012 C 
ENDBRANCH  18  41
BRANCH  15  44
HETATM   44  C   UNL     1       9.178  -1.445  -2.069  1.00  0.00     0.010 C 
HETATM   45  C   UNL     1      10.217  -2.099  -2.975  1.00  0.00     0.012 C 
HETATM   46  C   UNL     1       9.497   0.032  -1.861  1.00  0.00     0.012 C 
ENDBRANCH  15  44
TORSDOF 7
ENDMDL
