MODEL 1
REMARK VINA RESULT:    -6.264      0.000      0.000
REMARK INTER + INTRA:          -8.551
REMARK INTER:                  -7.674
REMARK INTRA:                  -0.877
REMARK UNBOUND:                -0.640
REMARK  5 active torsions:
REMARK  status: ('A' for Active; 'I' for Inactive)
REMARK    1  A    between atoms: C_1  and  C_6 
REMARK    2  A    between atoms: C_1  and  O_14 
REMARK    3  A    between atoms: C_2  and  C_3 
REMARK    4  A    between atoms: C_2  and  C_11 
REMARK    5  A    between atoms: C_6  and  C_8 
ROOT
HETATM    1  C   UNL     1       4.111 -11.156   9.535  1.00  0.00    -0.044 A 
HETATM    2  C   UNL     1       4.969 -11.780   8.647  1.00  0.00     0.008 A 
HETATM    3  C   UNL     1       4.958 -11.425   7.312  1.00  0.00     0.007 A 
HETATM    4  C   UNL     1       4.090 -10.448   6.864  1.00  0.00    -0.058 A 
HETATM    5  C   UNL     1       3.237  -9.822   7.751  1.00  0.00     0.007 A 
HETATM    6  C   UNL     1       3.244 -10.180   9.086  1.00  0.00     0.008 A 
ENDROOT
BRANCH   1   7
HETATM    7  C   UNL     1       4.121 -11.544  10.991  1.00  0.00     0.112 C 
HETATM    8  C   UNL     1       2.683 -11.686  11.491  1.00  0.00     0.026 C 
BRANCH   7   9
HETATM    9  C   UNL     1       4.828 -10.480  11.789  1.00  0.00     0.148 C 
HETATM   10  O   UNL     1       4.196  -9.747  12.511  1.00  0.00    -0.649 OA
BRANCH   9  11
HETATM   11  O   UNL     1       6.161 -10.346  11.697  1.00  0.00    -0.776 OA
HETATM   12  H   UNL     1       6.705 -11.097  11.422  1.00  0.00     0.167 HD
ENDBRANCH   9  11
ENDBRANCH   7   9
ENDBRANCH   1   7
BRANCH   4  13
HETATM   13  C   UNL     1       4.079 -10.062   5.407  1.00  0.00     0.042 C 
BRANCH  13  14
HETATM   14  C   UNL     1       3.829 -11.304   4.552  1.00  0.00    -0.019 C 
HETATM   15  C   UNL     1       2.385 -11.292   4.044  1.00  0.00     0.010 C 
HETATM   16  C   UNL     1       4.788 -11.305   3.361  1.00  0.00     0.010 C 
ENDBRANCH  13  14
ENDBRANCH   4  13
TORSDOF 5
ENDMDL
MODEL 2
REMARK VINA RESULT:    -5.870      1.487      2.152
REMARK INTER + INTRA:          -8.054
REMARK INTER:                  -7.336
REMARK INTRA:                  -0.718
REMARK UNBOUND:                -0.640
REMARK  5 active torsions:
REMARK  status: ('A' for Active; 'I' for Inactive)
REMARK    1  A    between atoms: C_1  and  C_6 
REMARK    2  A    between atoms: C_1  and  O_14 
REMARK    3  A    between atoms: C_2  and  C_3 
REMARK    4  A    between atoms: C_2  and  C_11 
REMARK    5  A    between atoms: C_6  and  C_8 
ROOT
HETATM    1  C   UNL     1       4.686 -11.227  10.853  1.00  0.00    -0.044 A 
HETATM    2  C   UNL     1       5.293 -11.900   9.809  1.00  0.00     0.008 A 
HETATM    3  C   UNL     1       4.977 -11.578   8.503  1.00  0.00     0.007 A 
HETATM    4  C   UNL     1       4.054 -10.583   8.241  1.00  0.00    -0.058 A 
HETATM    5  C   UNL     1       3.452  -9.907   9.284  1.00  0.00     0.007 A 
HETATM    6  C   UNL     1       3.764 -10.233  10.590  1.00  0.00     0.008 A 
ENDROOT
BRANCH   1   7
HETATM    7  C   UNL     1       5.029 -11.579  12.277  1.00  0.00     0.112 C 
HETATM    8  C   UNL     1       5.497 -13.034  12.345  1.00  0.00     0.026 C 
BRANCH   7   9
HETATM    9  C   UNL     1       3.811 -11.403  13.145  1.00  0.00     0.148 C 
HETATM   10  O   UNL     1       3.710 -10.429  13.853  1.00  0.00    -0.649 OA
BRANCH   9  11
HETATM   11  O   UNL     1       2.839 -12.328  13.135  1.00  0.00    -0.776 OA
HETATM   12  H   UNL     1       2.431 -12.591  12.298  1.00  0.00     0.167 HD
ENDBRANCH   9  11
ENDBRANCH   7   9
ENDBRANCH   1   7
BRANCH   4  13
HETATM   13  C   UNL     1       3.710 -10.232   6.816  1.00  0.00     0.042 C 
BRANCH  13  14
HETATM   14  C   UNL     1       4.938 -10.437   5.930  1.00  0.00    -0.019 C 
HETATM   15  C   UNL     1       4.528 -11.170   4.650  1.00  0.00     0.010 C 
HETATM   16  C   UNL     1       5.539  -9.078   5.568  1.00  0.00     0.010 C 
ENDBRANCH  13  14
ENDBRANCH   4  13
TORSDOF 5
ENDMDL
MODEL 3
REMARK VINA RESULT:    -5.864      2.799      5.805
REMARK INTER + INTRA:          -8.046
REMARK INTER:                  -7.192
REMARK INTRA:                  -0.854
REMARK UNBOUND:                -0.640
REMARK  5 active torsions:
REMARK  status: ('A' for Active; 'I' for Inactive)
REMARK    1  A    between atoms: C_1  and  C_6 
REMARK    2  A    between atoms: C_1  and  O_14 
REMARK    3  A    between atoms: C_2  and  C_3 
REMARK    4  A    between atoms: C_2  and  C_11 
REMARK    5  A    between atoms: C_6  and  C_8 
ROOT
HETATM    1  C   UNL     1       4.190 -10.238   6.649  1.00  0.00    -0.044 A 
HETATM    2  C   UNL     1       4.821 -11.212   7.400  1.00  0.00     0.008 A 
HETATM    3  C   UNL     1       4.628 -11.263   8.766  1.00  0.00     0.007 A 
HETATM    4  C   UNL     1       3.805 -10.340   9.383  1.00  0.00    -0.058 A 
HETATM    5  C   UNL     1       3.170  -9.370   8.632  1.00  0.00     0.007 A 
HETATM    6  C   UNL     1       3.367  -9.316   7.265  1.00  0.00     0.008 A 
ENDROOT
BRANCH   1   7
HETATM    7  C   UNL     1       4.402 -10.180   5.158  1.00  0.00     0.112 C 
HETATM    8  C   UNL     1       4.914 -11.533   4.662  1.00  0.00     0.026 C 
BRANCH   7   9
HETATM    9  C   UNL     1       5.412  -9.112   4.834  1.00  0.00     0.148 C 
HETATM   10  O   UNL     1       5.158  -8.270   4.006  1.00  0.00    -0.649 OA
BRANCH   9  11
HETATM   11  O   UNL     1       6.597  -9.095   5.466  1.00  0.00    -0.776 OA
HETATM   12  H   UNL     1       7.208  -9.838   5.367  1.00  0.00     0.167 HD
ENDBRANCH   9  11
ENDBRANCH   7   9
ENDBRANCH   1   7
BRANCH   4  13
HETATM   13  C   UNL     1       3.595 -10.396  10.875  1.00  0.00     0.042 C 
BRANCH  13  14
HETATM   14  C   UNL     1       3.105 -11.790  11.268  1.00  0.00    -0.019 C 
HETATM   15  C   UNL     1       3.671 -12.160  12.641  1.00  0.00     0.010 C 
HETATM   16  C   UNL     1       1.577 -11.796  11.328  1.00  0.00     0.010 C 
ENDBRANCH  13  14
ENDBRANCH   4  13
TORSDOF 5
ENDMDL
MODEL 4
REMARK VINA RESULT:    -5.838      0.850      1.841
REMARK INTER + INTRA:          -8.013
REMARK INTER:                  -7.139
REMARK INTRA:                  -0.873
REMARK UNBOUND:                -0.640
REMARK  5 active torsions:
REMARK  status: ('A' for Active; 'I' for Inactive)
REMARK    1  A    between atoms: C_1  and  C_6 
REMARK    2  A    between atoms: C_1  and  O_14 
REMARK    3  A    between atoms: C_2  and  C_3 
REMARK    4  A    between atoms: C_2  and  C_11 
REMARK    5  A    between atoms: C_6  and  C_8 
ROOT
HETATM    1  C   UNL     1       4.073 -11.092   9.521  1.00  0.00    -0.044 A 
HETATM    2  C   UNL     1       3.196 -10.095   9.136  1.00  0.00     0.008 A 
HETATM    3  C   UNL     1       3.137  -9.699   7.814  1.00  0.00     0.007 A 
HETATM    4  C   UNL     1       3.957 -10.299   6.876  1.00  0.00    -0.058 A 
HETATM    5  C   UNL     1       4.830 -11.298   7.260  1.00  0.00     0.007 A 
HETATM    6  C   UNL     1       4.892 -11.691   8.583  1.00  0.00     0.008 A 
ENDROOT
BRANCH   1   7
HETATM    7  C   UNL     1       4.138 -11.523  10.963  1.00  0.00     0.112 C 
HETATM    8  C   UNL     1       2.721 -11.705  11.506  1.00  0.00     0.026 C 
BRANCH   7   9
HETATM    9  C   UNL     1       4.854 -10.471  11.770  1.00  0.00     0.148 C 
HETATM   10  O   UNL     1       4.227  -9.736  12.495  1.00  0.00    -0.649 OA
BRANCH   9  11
HETATM   11  O   UNL     1       6.188 -10.349  11.682  1.00  0.00    -0.776 OA
HETATM   12  H   UNL     1       6.669 -10.800  10.974  1.00  0.00     0.167 HD
ENDBRANCH   9  11
ENDBRANCH   7   9
ENDBRANCH   1   7
BRANCH   4  13
HETATM   13  C   UNL     1       3.893  -9.866   5.433  1.00  0.00     0.042 C 
BRANCH  13  14
HETATM   14  C   UNL     1       5.311  -9.733   4.878  1.00  0.00    -0.019 C 
HETATM   15  C   UNL     1       5.334 -10.198   3.420  1.00  0.00     0.010 C 
HETATM   16  C   UNL     1       5.753  -8.271   4.953  1.00  0.00     0.010 C 
ENDBRANCH  13  14
ENDBRANCH   4  13
TORSDOF 5
ENDMDL
MODEL 5
REMARK VINA RESULT:    -5.717      1.453      2.171
REMARK INTER + INTRA:          -7.860
REMARK INTER:                  -7.176
REMARK INTRA:                  -0.685
REMARK UNBOUND:                -0.640
REMARK  5 active torsions:
REMARK  status: ('A' for Active; 'I' for Inactive)
REMARK    1  A    between atoms: C_1  and  C_6 
REMARK    2  A    between atoms: C_1  and  O_14 
REMARK    3  A    between atoms: C_2  and  C_3 
REMARK    4  A    between atoms: C_2  and  C_11 
REMARK    5  A    between atoms: C_6  and  C_8 
ROOT
HETATM    1  C   UNL     1       4.379 -10.940   8.567  1.00  0.00    -0.044 A 
HETATM    2  C   UNL     1       3.526 -10.058   7.930  1.00  0.00     0.008 A 
HETATM    3  C   UNL     1       3.481 -10.016   6.550  1.00  0.00     0.007 A 
HETATM    4  C   UNL     1       4.289 -10.855   5.806  1.00  0.00    -0.058 A 
HETATM    5  C   UNL     1       5.137 -11.740   6.442  1.00  0.00     0.007 A 
HETATM    6  C   UNL     1       5.186 -11.779   7.823  1.00  0.00     0.008 A 
ENDROOT
BRANCH   1   7
HETATM    7  C   UNL     1       4.431 -10.986  10.072  1.00  0.00     0.112 C 
HETATM    8  C   UNL     1       4.834 -12.389  10.527  1.00  0.00     0.026 C 
BRANCH   7   9
HETATM    9  C   UNL     1       3.074 -10.647  10.631  1.00  0.00     0.148 C 
HETATM   10  O   UNL     1       2.255 -11.520  10.801  1.00  0.00    -0.649 OA
BRANCH   9  11
HETATM   11  O   UNL     1       2.772  -9.376  10.940  1.00  0.00    -0.776 OA
HETATM   12  H   UNL     1       2.227  -9.183  11.715  1.00  0.00     0.167 HD
ENDBRANCH   9  11
ENDBRANCH   7   9
ENDBRANCH   1   7
BRANCH   4  13
HETATM   13  C   UNL     1       4.239 -10.808   4.300  1.00  0.00     0.042 C 
BRANCH  13  14
HETATM   14  C   UNL     1       3.553 -12.069   3.774  1.00  0.00    -0.019 C 
HETATM   15  C   UNL     1       2.164 -11.710   3.241  1.00  0.00     0.010 C 
HETATM   16  C   UNL     1       4.390 -12.673   2.646  1.00  0.00     0.010 C 
ENDBRANCH  13  14
ENDBRANCH   4  13
TORSDOF 5
ENDMDL
MODEL 6
REMARK VINA RESULT:    -5.696      1.402      2.188
REMARK INTER + INTRA:          -7.834
REMARK INTER:                  -7.373
REMARK INTRA:                  -0.461
REMARK UNBOUND:                -0.640
REMARK  5 active torsions:
REMARK  status: ('A' for Active; 'I' for Inactive)
REMARK    1  A    between atoms: C_1  and  C_6 
REMARK    2  A    between atoms: C_1  and  O_14 
REMARK    3  A    between atoms: C_2  and  C_3 
REMARK    4  A    between atoms: C_2  and  C_11 
REMARK    5  A    between atoms: C_6  and  C_8 
ROOT
HETATM    1  C   UNL     1       5.172 -11.656  10.610  1.00  0.00    -0.044 A 
HETATM    2  C   UNL     1       6.042 -12.393   9.829  1.00  0.00     0.008 A 
HETATM    3  C   UNL     1       5.963 -12.321   8.452  1.00  0.00     0.007 A 
HETATM    4  C   UNL     1       5.013 -11.513   7.855  1.00  0.00    -0.058 A 
HETATM    5  C   UNL     1       4.148 -10.772   8.637  1.00  0.00     0.007 A 
HETATM    6  C   UNL     1       4.224 -10.848  10.014  1.00  0.00     0.008 A 
ENDROOT
BRANCH   1   7
HETATM    7  C   UNL     1       5.257 -11.735  12.113  1.00  0.00     0.112 C 
HETATM    8  C   UNL     1       5.375 -13.198  12.541  1.00  0.00     0.026 C 
BRANCH   7   9
HETATM    9  C   UNL     1       4.017 -11.133  12.719  1.00  0.00     0.148 C 
HETATM   10  O   UNL     1       3.927  -9.934  12.844  1.00  0.00    -0.649 OA
BRANCH   9  11
HETATM   11  O   UNL     1       3.012 -11.927  13.121  1.00  0.00    -0.776 OA
HETATM   12  H   UNL     1       2.097 -11.618  13.060  1.00  0.00     0.167 HD
ENDBRANCH   9  11
ENDBRANCH   7   9
ENDBRANCH   1   7
BRANCH   4  13
HETATM   13  C   UNL     1       4.927 -11.435   6.352  1.00  0.00     0.042 C 
BRANCH  13  14
HETATM   14  C   UNL     1       4.087 -10.222   5.952  1.00  0.00    -0.019 C 
HETATM   15  C   UNL     1       4.970  -9.209   5.219  1.00  0.00     0.010 C 
HETATM   16  C   UNL     1       2.951 -10.669   5.031  1.00  0.00     0.010 C 
ENDBRANCH  13  14
ENDBRANCH   4  13
TORSDOF 5
ENDMDL
MODEL 7
REMARK VINA RESULT:    -5.667      2.714      5.839
REMARK INTER + INTRA:          -7.798
REMARK INTER:                  -7.083
REMARK INTRA:                  -0.715
REMARK UNBOUND:                -0.640
REMARK  5 active torsions:
REMARK  status: ('A' for Active; 'I' for Inactive)
REMARK    1  A    between atoms: C_1  and  C_6 
REMARK    2  A    between atoms: C_1  and  O_14 
REMARK    3  A    between atoms: C_2  and  C_3 
REMARK    4  A    between atoms: C_2  and  C_11 
REMARK    5  A    between atoms: C_6  and  C_8 
ROOT
HETATM    1  C   UNL     1       4.669 -10.850   6.522  1.00  0.00    -0.044 A 
HETATM    2  C   UNL     1       5.387 -12.006   6.764  1.00  0.00     0.008 A 
HETATM    3  C   UNL     1       5.465 -12.515   8.046  1.00  0.00     0.007 A 
HETATM    4  C   UNL     1       4.826 -11.868   9.086  1.00  0.00    -0.058 A 
HETATM    5  C   UNL     1       4.103 -10.716   8.843  1.00  0.00     0.007 A 
HETATM    6  C   UNL     1       4.030 -10.204   7.562  1.00  0.00     0.008 A 
ENDROOT
BRANCH   1   7
HETATM    7  C   UNL     1       4.586 -10.293   5.124  1.00  0.00     0.112 C 
HETATM    8  C   UNL     1       5.095 -11.336   4.128  1.00  0.00     0.026 C 
BRANCH   7   9
HETATM    9  C   UNL     1       5.431  -9.051   5.027  1.00  0.00     0.148 C 
HETATM   10  O   UNL     1       5.004  -8.072   4.463  1.00  0.00    -0.649 OA
BRANCH   9  11
HETATM   11  O   UNL     1       6.661  -9.031   5.566  1.00  0.00    -0.776 OA
HETATM   12  H   UNL     1       6.973  -8.241   6.030  1.00  0.00     0.167 HD
ENDBRANCH   9  11
ENDBRANCH   7   9
ENDBRANCH   1   7
BRANCH   4  13
HETATM   13  C   UNL     1       4.911 -12.424  10.485  1.00  0.00     0.042 C 
BRANCH  13  14
HETATM   14  C   UNL     1       4.300 -11.425  11.468  1.00  0.00    -0.019 C 
HETATM   15  C   UNL     1       2.997 -11.997  12.033  1.00  0.00     0.010 C 
HETATM   16  C   UNL     1       5.281 -11.170  12.612  1.00  0.00     0.010 C 
ENDBRANCH  13  14
ENDBRANCH   4  13
TORSDOF 5
ENDMDL
MODEL 8
REMARK VINA RESULT:    -5.266      4.992      6.344
REMARK INTER + INTRA:          -7.291
REMARK INTER:                  -6.648
REMARK INTRA:                  -0.643
REMARK UNBOUND:                -0.640
REMARK  5 active torsions:
REMARK  status: ('A' for Active; 'I' for Inactive)
REMARK    1  A    between atoms: C_1  and  C_6 
REMARK    2  A    between atoms: C_1  and  O_14 
REMARK    3  A    between atoms: C_2  and  C_3 
REMARK    4  A    between atoms: C_2  and  C_11 
REMARK    5  A    between atoms: C_6  and  C_8 
ROOT
HETATM    1  C   UNL     1       3.935  -5.594   6.030  1.00  0.00    -0.044 A 
HETATM    2  C   UNL     1       5.052  -6.144   5.429  1.00  0.00     0.008 A 
HETATM    3  C   UNL     1       5.215  -7.516   5.401  1.00  0.00     0.007 A 
HETATM    4  C   UNL     1       4.264  -8.337   5.975  1.00  0.00    -0.058 A 
HETATM    5  C   UNL     1       3.145  -7.787   6.571  1.00  0.00     0.007 A 
HETATM    6  C   UNL     1       2.984  -6.415   6.603  1.00  0.00     0.008 A 
ENDROOT
BRANCH   1   7
HETATM    7  C   UNL     1       3.757  -4.098   6.063  1.00  0.00     0.112 C 
HETATM    8  C   UNL     1       4.038  -3.581   7.474  1.00  0.00     0.026 C 
BRANCH   7   9
HETATM    9  C   UNL     1       2.344  -3.752   5.672  1.00  0.00     0.148 C 
HETATM   10  O   UNL     1       1.861  -4.224   4.671  1.00  0.00    -0.649 OA
BRANCH   9  11
HETATM   11  O   UNL     1       1.621  -2.918   6.437  1.00  0.00    -0.776 OA
HETATM   12  H   UNL     1       1.497  -3.109   7.377  1.00  0.00     0.167 HD
ENDBRANCH   9  11
ENDBRANCH   7   9
ENDBRANCH   1   7
BRANCH   4  13
HETATM   13  C   UNL     1       4.443  -9.833   5.944  1.00  0.00     0.042 C 
BRANCH  13  14
HETATM   14  C   UNL     1       3.999 -10.372   4.584  1.00  0.00    -0.019 C 
HETATM   15  C   UNL     1       4.996 -11.429   4.104  1.00  0.00     0.010 C 
HETATM   16  C   UNL     1       2.611 -11.000   4.711  1.00  0.00     0.010 C 
ENDBRANCH  13  14
ENDBRANCH   4  13
TORSDOF 5
ENDMDL
MODEL 9
REMARK VINA RESULT:    -5.148      2.928      5.926
REMARK INTER + INTRA:          -7.142
REMARK INTER:                  -6.522
REMARK INTRA:                  -0.620
REMARK UNBOUND:                -0.640
REMARK  5 active torsions:
REMARK  status: ('A' for Active; 'I' for Inactive)
REMARK    1  A    between atoms: C_1  and  C_6 
REMARK    2  A    between atoms: C_1  and  O_14 
REMARK    3  A    between atoms: C_2  and  C_3 
REMARK    4  A    between atoms: C_2  and  C_11 
REMARK    5  A    between atoms: C_6  and  C_8 
ROOT
HETATM    1  C   UNL     1       4.498 -10.915   6.994  1.00  0.00    -0.044 A 
HETATM    2  C   UNL     1       5.284 -12.038   7.172  1.00  0.00     0.008 A 
HETATM    3  C   UNL     1       5.476 -12.552   8.440  1.00  0.00     0.007 A 
HETATM    4  C   UNL     1       4.884 -11.942   9.530  1.00  0.00    -0.058 A 
HETATM    5  C   UNL     1       4.094 -10.823   9.350  1.00  0.00     0.007 A 
HETATM    6  C   UNL     1       3.906 -10.306   8.083  1.00  0.00     0.008 A 
ENDROOT
BRANCH   1   7
HETATM    7  C   UNL     1       4.289 -10.354   5.611  1.00  0.00     0.112 C 
HETATM    8  C   UNL     1       5.109  -9.073   5.451  1.00  0.00     0.026 C 
BRANCH   7   9
HETATM    9  C   UNL     1       2.829 -10.044   5.410  1.00  0.00     0.148 C 
HETATM   10  O   UNL     1       2.437  -8.904   5.488  1.00  0.00    -0.649 OA
BRANCH   9  11
HETATM   11  O   UNL     1       1.962 -11.034   5.145  1.00  0.00    -0.776 OA
HETATM   12  H   UNL     1       2.231 -11.956   5.261  1.00  0.00     0.167 HD
ENDBRANCH   9  11
ENDBRANCH   7   9
ENDBRANCH   1   7
BRANCH   4  13
HETATM   13  C   UNL     1       5.094 -12.503  10.913  1.00  0.00     0.042 C 
BRANCH  13  14
HETATM   14  C   UNL     1       4.460 -11.568  11.944  1.00  0.00    -0.019 C 
HETATM   15  C   UNL     1       3.202 -12.222  12.520  1.00  0.00     0.010 C 
HETATM   16  C   UNL     1       5.457 -11.300  13.072  1.00  0.00     0.010 C 
ENDBRANCH  13  14
ENDBRANCH   4  13
TORSDOF 5
ENDMDL
MODEL 10
REMARK VINA RESULT:    -5.137      4.460      5.497
REMARK INTER + INTRA:          -7.128
REMARK INTER:                  -6.322
REMARK INTRA:                  -0.806
REMARK UNBOUND:                -0.640
REMARK  5 active torsions:
REMARK  status: ('A' for Active; 'I' for Inactive)
REMARK    1  A    between atoms: C_1  and  C_6 
REMARK    2  A    between atoms: C_1  and  O_14 
REMARK    3  A    between atoms: C_2  and  C_3 
REMARK    4  A    between atoms: C_2  and  C_11 
REMARK    5  A    between atoms: C_6  and  C_8 
ROOT
HETATM    1  C   UNL     1       4.261  -7.012   6.183  1.00  0.00    -0.044 A 
HETATM    2  C   UNL     1       3.210  -7.803   6.609  1.00  0.00     0.008 A 
HETATM    3  C   UNL     1       3.171  -9.141   6.267  1.00  0.00     0.007 A 
HETATM    4  C   UNL     1       4.180  -9.687   5.498  1.00  0.00    -0.058 A 
HETATM    5  C   UNL     1       5.233  -8.898   5.077  1.00  0.00     0.007 A 
HETATM    6  C   UNL     1       5.270  -7.559   5.415  1.00  0.00     0.008 A 
ENDROOT
BRANCH   1   7
HETATM    7  C   UNL     1       4.304  -5.552   6.555  1.00  0.00     0.112 C 
HETATM    8  C   UNL     1       4.221  -5.409   8.075  1.00  0.00     0.026 C 
BRANCH   7   9
HETATM    9  C   UNL     1       3.140  -4.837   5.919  1.00  0.00     0.148 C 
HETATM   10  O   UNL     1       2.457  -4.090   6.578  1.00  0.00    -0.649 OA
BRANCH   9  11
HETATM   11  O   UNL     1       2.861  -5.031   4.620  1.00  0.00    -0.776 OA
HETATM   12  H   UNL     1       3.557  -5.320   4.014  1.00  0.00     0.167 HD
ENDBRANCH   9  11
ENDBRANCH   7   9
ENDBRANCH   1   7
BRANCH   4  13
HETATM   13  C   UNL     1       4.137 -11.147   5.125  1.00  0.00     0.042 C 
BRANCH  13  14
HETATM   14  C   UNL     1       3.671 -11.289   3.676  1.00  0.00    -0.019 C 
HETATM   15  C   UNL     1       4.443 -12.426   3.001  1.00  0.00     0.010 C 
HETATM   16  C   UNL     1       2.175 -11.603   3.649  1.00  0.00     0.010 C 
ENDBRANCH  13  14
ENDBRANCH   4  13
TORSDOF 5
ENDMDL
MODEL 11
REMARK VINA RESULT:    -5.093      9.869     12.498
REMARK INTER + INTRA:          -7.072
REMARK INTER:                  -6.474
REMARK INTRA:                  -0.598
REMARK UNBOUND:                -0.640
REMARK  5 active torsions:
REMARK  status: ('A' for Active; 'I' for Inactive)
REMARK    1  A    between atoms: C_1  and  C_6 
REMARK    2  A    between atoms: C_1  and  O_14 
REMARK    3  A    between atoms: C_2  and  C_3 
REMARK    4  A    between atoms: C_2  and  C_11 
REMARK    5  A    between atoms: C_6  and  C_8 
ROOT
HETATM    1  C   UNL     1       8.129  -5.342  -0.985  1.00  0.00    -0.044 A 
HETATM    2  C   UNL     1       8.967  -4.310  -0.609  1.00  0.00     0.008 A 
HETATM    3  C   UNL     1       8.625  -3.003  -0.898  1.00  0.00     0.007 A 
HETATM    4  C   UNL     1       7.446  -2.728  -1.563  1.00  0.00    -0.058 A 
HETATM    5  C   UNL     1       6.605  -3.759  -1.934  1.00  0.00     0.007 A 
HETATM    6  C   UNL     1       6.950  -5.067  -1.650  1.00  0.00     0.008 A 
ENDROOT
BRANCH   1   7
HETATM    7  C   UNL     1       8.502  -6.768  -0.672  1.00  0.00     0.112 C 
HETATM    8  C   UNL     1       7.873  -7.700  -1.709  1.00  0.00     0.026 C 
BRANCH   7   9
HETATM    9  C   UNL     1       7.997  -7.130   0.700  1.00  0.00     0.148 C 
HETATM   10  O   UNL     1       6.848  -6.906   0.999  1.00  0.00    -0.649 OA
BRANCH   9  11
HETATM   11  O   UNL     1       8.824  -7.699   1.591  1.00  0.00    -0.776 OA
HETATM   12  H   UNL     1       8.680  -7.566   2.539  1.00  0.00     0.167 HD
ENDBRANCH   9  11
ENDBRANCH   7   9
ENDBRANCH   1   7
BRANCH   4  13
HETATM   13  C   UNL     1       7.074  -1.301  -1.878  1.00  0.00     0.042 C 
BRANCH  13  14
HETATM   14  C   UNL     1       6.905  -0.519  -0.575  1.00  0.00    -0.019 C 
HETATM   15  C   UNL     1       8.043   0.496  -0.439  1.00  0.00     0.010 C 
HETATM   16  C   UNL     1       5.565   0.217  -0.591  1.00  0.00     0.010 C 
ENDBRANCH  13  14
ENDBRANCH   4  13
TORSDOF 5
ENDMDL
MODEL 12
REMARK VINA RESULT:    -5.088      9.867     12.516
REMARK INTER + INTRA:          -7.066
REMARK INTER:                  -6.481
REMARK INTRA:                  -0.585
REMARK UNBOUND:                -0.640
REMARK  5 active torsions:
REMARK  status: ('A' for Active; 'I' for Inactive)
REMARK    1  A    between atoms: C_1  and  C_6 
REMARK    2  A    between atoms: C_1  and  O_14 
REMARK    3  A    between atoms: C_2  and  C_3 
REMARK    4  A    between atoms: C_2  and  C_11 
REMARK    5  A    between atoms: C_6  and  C_8 
ROOT
HETATM    1  C   UNL     1       8.126  -5.343  -0.989  1.00  0.00    -0.044 A 
HETATM    2  C   UNL     1       6.943  -5.073  -1.651  1.00  0.00     0.008 A 
HETATM    3  C   UNL     1       6.595  -3.768  -1.939  1.00  0.00     0.007 A 
HETATM    4  C   UNL     1       7.428  -2.732  -1.565  1.00  0.00    -0.058 A 
HETATM    5  C   UNL     1       8.613  -3.001  -0.908  1.00  0.00     0.007 A 
HETATM    6  C   UNL     1       8.959  -4.306  -0.615  1.00  0.00     0.008 A 
ENDROOT
BRANCH   1   7
HETATM    7  C   UNL     1       8.506  -6.766  -0.673  1.00  0.00     0.112 C 
HETATM    8  C   UNL     1       7.877  -7.704  -1.704  1.00  0.00     0.026 C 
BRANCH   7   9
HETATM    9  C   UNL     1       8.006  -7.126   0.702  1.00  0.00     0.148 C 
HETATM   10  O   UNL     1       6.861  -6.892   1.009  1.00  0.00    -0.649 OA
BRANCH   9  11
HETATM   11  O   UNL     1       8.834  -7.704   1.587  1.00  0.00    -0.776 OA
HETATM   12  H   UNL     1       9.700  -7.313   1.766  1.00  0.00     0.167 HD
ENDBRANCH   9  11
ENDBRANCH   7   9
ENDBRANCH   1   7
BRANCH   4  13
HETATM   13  C   UNL     1       7.048  -1.308  -1.880  1.00  0.00     0.042 C 
BRANCH  13  14
HETATM   14  C   UNL     1       6.899  -0.520  -0.578  1.00  0.00    -0.019 C 
HETATM   15  C   UNL     1       8.045   0.486  -0.456  1.00  0.00     0.010 C 
HETATM   16  C   UNL     1       5.564   0.226  -0.583  1.00  0.00     0.010 C 
ENDBRANCH  13  14
ENDBRANCH   4  13
TORSDOF 5
ENDMDL
MODEL 13
REMARK VINA RESULT:    -5.065     10.381     12.986
REMARK INTER + INTRA:          -7.037
REMARK INTER:                  -6.222
REMARK INTRA:                  -0.815
REMARK UNBOUND:                -0.640
REMARK  5 active torsions:
REMARK  status: ('A' for Active; 'I' for Inactive)
REMARK    1  A    between atoms: C_1  and  C_6 
REMARK    2  A    between atoms: C_1  and  O_14 
REMARK    3  A    between atoms: C_2  and  C_3 
REMARK    4  A    between atoms: C_2  and  C_11 
REMARK    5  A    between atoms: C_6  and  C_8 
ROOT
HETATM    1  C   UNL     1       7.683  -5.396  -1.179  1.00  0.00    -0.044 A 
HETATM    2  C   UNL     1       6.621  -4.819  -1.850  1.00  0.00     0.008 A 
HETATM    3  C   UNL     1       6.581  -3.451  -2.033  1.00  0.00     0.007 A 
HETATM    4  C   UNL     1       7.602  -2.658  -1.544  1.00  0.00    -0.058 A 
HETATM    5  C   UNL     1       8.667  -3.235  -0.879  1.00  0.00     0.007 A 
HETATM    6  C   UNL     1       8.704  -4.603  -0.691  1.00  0.00     0.008 A 
ENDROOT
BRANCH   1   7
HETATM    7  C   UNL     1       7.727  -6.889  -0.977  1.00  0.00     0.112 C 
HETATM    8  C   UNL     1       7.460  -7.214   0.493  1.00  0.00     0.026 C 
BRANCH   7   9
HETATM    9  C   UNL     1       9.085  -7.409  -1.369  1.00  0.00     0.148 C 
HETATM   10  O   UNL     1       9.861  -7.772  -0.517  1.00  0.00    -0.649 OA
BRANCH   9  11
HETATM   11  O   UNL     1       9.434  -7.469  -2.664  1.00  0.00    -0.776 OA
HETATM   12  H   UNL     1       9.810  -8.283  -3.026  1.00  0.00     0.167 HD
ENDBRANCH   9  11
ENDBRANCH   7   9
ENDBRANCH   1   7
BRANCH   4  13
HETATM   13  C   UNL     1       7.558  -1.165  -1.744  1.00  0.00     0.042 C 
BRANCH  13  14
HETATM   14  C   UNL     1       7.015  -0.497  -0.481  1.00  0.00    -0.019 C 
HETATM   15  C   UNL     1       8.019   0.545   0.018  1.00  0.00     0.010 C 
HETATM   16  C   UNL     1       5.685   0.187  -0.797  1.00  0.00     0.010 C 
ENDBRANCH  13  14
ENDBRANCH   4  13
TORSDOF 5
ENDMDL
MODEL 14
REMARK VINA RESULT:    -5.017      8.551      9.777
REMARK INTER + INTRA:          -6.976
REMARK INTER:                  -6.592
REMARK INTRA:                  -0.385
REMARK UNBOUND:                -0.640
REMARK  5 active torsions:
REMARK  status: ('A' for Active; 'I' for Inactive)
REMARK    1  A    between atoms: C_1  and  C_6 
REMARK    2  A    between atoms: C_1  and  O_14 
REMARK    3  A    between atoms: C_2  and  C_3 
REMARK    4  A    between atoms: C_2  and  C_11 
REMARK    5  A    between atoms: C_6  and  C_8 
ROOT
HETATM    1  C   UNL     1       4.486  -3.561   6.850  1.00  0.00    -0.044 A 
HETATM    2  C   UNL     1       5.086  -3.012   5.732  1.00  0.00     0.008 A 
HETATM    3  C   UNL     1       6.055  -2.038   5.877  1.00  0.00     0.007 A 
HETATM    4  C   UNL     1       6.424  -1.613   7.139  1.00  0.00    -0.058 A 
HETATM    5  C   UNL     1       5.829  -2.166   8.256  1.00  0.00     0.007 A 
HETATM    6  C   UNL     1       4.856  -3.136   8.111  1.00  0.00     0.008 A 
ENDROOT
BRANCH   1   7
HETATM    7  C   UNL     1       3.428  -4.623   6.692  1.00  0.00     0.112 C 
HETATM    8  C   UNL     1       4.054  -5.884   6.097  1.00  0.00     0.026 C 
BRANCH   7   9
HETATM    9  C   UNL     1       2.344  -4.119   5.776  1.00  0.00     0.148 C 
HETATM   10  O   UNL     1       2.055  -4.743   4.783  1.00  0.00    -0.649 OA
BRANCH   9  11
HETATM   11  O   UNL     1       1.700  -2.976   6.061  1.00  0.00    -0.776 OA
HETATM   12  H   UNL     1       1.465  -2.363   5.350  1.00  0.00     0.167 HD
ENDBRANCH   9  11
ENDBRANCH   7   9
ENDBRANCH   1   7
BRANCH   4  13
HETATM   13  C   UNL     1       7.481  -0.550   7.296  1.00  0.00     0.042 C 
BRANCH  13  14
HETATM   14  C   UNL     1       8.210  -0.356   5.966  1.00  0.00    -0.019 C 
HETATM   15  C   UNL     1       7.541   0.773   5.178  1.00  0.00     0.010 C 
HETATM   16  C   UNL     1       9.672   0.007   6.233  1.00  0.00     0.010 C 
ENDBRANCH  13  14
ENDBRANCH   4  13
TORSDOF 5
ENDMDL
MODEL 15
REMARK VINA RESULT:    -5.010      3.521      6.298
REMARK INTER + INTRA:          -6.967
REMARK INTER:                  -6.369
REMARK INTRA:                  -0.598
REMARK UNBOUND:                -0.640
REMARK  5 active torsions:
REMARK  status: ('A' for Active; 'I' for Inactive)
REMARK    1  A    between atoms: C_1  and  C_6 
REMARK    2  A    between atoms: C_1  and  O_14 
REMARK    3  A    between atoms: C_2  and  C_3 
REMARK    4  A    between atoms: C_2  and  C_11 
REMARK    5  A    between atoms: C_6  and  C_8 
ROOT
HETATM    1  C   UNL     1       4.563 -10.797   5.539  1.00  0.00    -0.044 A 
HETATM    2  C   UNL     1       5.051 -11.510   6.618  1.00  0.00     0.008 A 
HETATM    3  C   UNL     1       4.660 -11.177   7.900  1.00  0.00     0.007 A 
HETATM    4  C   UNL     1       3.783 -10.129   8.105  1.00  0.00    -0.058 A 
HETATM    5  C   UNL     1       3.290  -9.419   7.026  1.00  0.00     0.007 A 
HETATM    6  C   UNL     1       3.685  -9.750   5.744  1.00  0.00     0.008 A 
ENDROOT
BRANCH   1   7
HETATM    7  C   UNL     1       4.990 -11.160   4.141  1.00  0.00     0.112 C 
HETATM    8  C   UNL     1       5.269  -9.884   3.345  1.00  0.00     0.026 C 
BRANCH   7   9
HETATM    9  C   UNL     1       3.892 -11.941   3.467  1.00  0.00     0.148 C 
HETATM   10  O   UNL     1       4.100 -13.069   3.087  1.00  0.00    -0.649 OA
BRANCH   9  11
HETATM   11  O   UNL     1       2.684 -11.385   3.288  1.00  0.00    -0.776 OA
HETATM   12  H   UNL     1       2.401 -10.651   3.851  1.00  0.00     0.167 HD
ENDBRANCH   9  11
ENDBRANCH   7   9
ENDBRANCH   1   7
BRANCH   4  13
HETATM   13  C   UNL     1       3.357  -9.765   9.504  1.00  0.00     0.042 C 
BRANCH  13  14
HETATM   14  C   UNL     1       3.715 -10.904  10.458  1.00  0.00    -0.019 C 
HETATM   15  C   UNL     1       4.614 -10.370  11.576  1.00  0.00     0.010 C 
HETATM   16  C   UNL     1       2.437 -11.483  11.065  1.00  0.00     0.010 C 
ENDBRANCH  13  14
ENDBRANCH   4  13
TORSDOF 5
ENDMDL
MODEL 16
REMARK VINA RESULT:    -4.917      1.521      2.151
REMARK INTER + INTRA:          -6.850
REMARK INTER:                  -6.191
REMARK INTRA:                  -0.660
REMARK UNBOUND:                -0.640
REMARK  5 active torsions:
REMARK  status: ('A' for Active; 'I' for Inactive)
REMARK    1  A    between atoms: C_1  and  C_6 
REMARK    2  A    between atoms: C_1  and  O_14 
REMARK    3  A    between atoms: C_2  and  C_3 
REMARK    4  A    between atoms: C_2  and  C_11 
REMARK    5  A    between atoms: C_6  and  C_8 
ROOT
HETATM    1  C   UNL     1       4.076 -11.243  10.124  1.00  0.00    -0.044 A 
HETATM    2  C   UNL     1       5.012 -11.594   9.169  1.00  0.00     0.008 A 
HETATM    3  C   UNL     1       4.951 -11.040   7.905  1.00  0.00     0.007 A 
HETATM    4  C   UNL     1       3.953 -10.135   7.595  1.00  0.00    -0.058 A 
HETATM    5  C   UNL     1       3.021  -9.780   8.550  1.00  0.00     0.007 A 
HETATM    6  C   UNL     1       3.079 -10.338   9.813  1.00  0.00     0.008 A 
ENDROOT
BRANCH   1   7
HETATM    7  C   UNL     1       4.141 -11.848  11.502  1.00  0.00     0.112 C 
HETATM    8  C   UNL     1       2.723 -12.044  12.041  1.00  0.00     0.026 C 
BRANCH   7   9
HETATM    9  C   UNL     1       4.904 -10.928  12.419  1.00  0.00     0.148 C 
HETATM   10  O   UNL     1       5.435 -11.368  13.411  1.00  0.00    -0.649 OA
BRANCH   9  11
HETATM   11  O   UNL     1       4.994  -9.619  12.135  1.00  0.00    -0.776 OA
HETATM   12  H   UNL     1       5.653  -9.306  11.500  1.00  0.00     0.167 HD
ENDBRANCH   9  11
ENDBRANCH   7   9
ENDBRANCH   1   7
BRANCH   4  13
HETATM   13  C   UNL     1       3.887  -9.531   6.216  1.00  0.00     0.042 C 
BRANCH  13  14
HETATM   14  C   UNL     1       4.906  -8.397   6.107  1.00  0.00    -0.019 C 
HETATM   15  C   UNL     1       5.739  -8.579   4.836  1.00  0.00     0.010 C 
HETATM   16  C   UNL     1       4.173  -7.056   6.047  1.00  0.00     0.010 C 
ENDBRANCH  13  14
ENDBRANCH   4  13
TORSDOF 5
ENDMDL
MODEL 17
REMARK VINA RESULT:    -4.831      4.926      6.528
REMARK INTER + INTRA:          -6.742
REMARK INTER:                  -6.219
REMARK INTRA:                  -0.523
REMARK UNBOUND:                -0.640
REMARK  5 active torsions:
REMARK  status: ('A' for Active; 'I' for Inactive)
REMARK    1  A    between atoms: C_1  and  C_6 
REMARK    2  A    between atoms: C_1  and  O_14 
REMARK    3  A    between atoms: C_2  and  C_3 
REMARK    4  A    between atoms: C_2  and  C_11 
REMARK    5  A    between atoms: C_6  and  C_8 
ROOT
HETATM    1  C   UNL     1       3.777  -5.794   6.097  1.00  0.00    -0.044 A 
HETATM    2  C   UNL     1       2.646  -6.500   6.463  1.00  0.00     0.008 A 
HETATM    3  C   UNL     1       2.685  -7.879   6.530  1.00  0.00     0.007 A 
HETATM    4  C   UNL     1       3.853  -8.553   6.230  1.00  0.00    -0.058 A 
HETATM    5  C   UNL     1       4.985  -7.847   5.870  1.00  0.00     0.007 A 
HETATM    6  C   UNL     1       4.945  -6.468   5.798  1.00  0.00     0.008 A 
ENDROOT
BRANCH   1   7
HETATM    7  C   UNL     1       3.735  -4.289   6.023  1.00  0.00     0.112 C 
HETATM    8  C   UNL     1       4.073  -3.701   7.393  1.00  0.00     0.026 C 
BRANCH   7   9
HETATM    9  C   UNL     1       2.355  -3.845   5.612  1.00  0.00     0.148 C 
HETATM   10  O   UNL     1       1.853  -4.288   4.607  1.00  0.00    -0.649 OA
BRANCH   9  11
HETATM   11  O   UNL     1       1.685  -2.956   6.362  1.00  0.00    -0.776 OA
HETATM   12  H   UNL     1       1.777  -2.968   7.325  1.00  0.00     0.167 HD
ENDBRANCH   9  11
ENDBRANCH   7   9
ENDBRANCH   1   7
BRANCH   4  13
HETATM   13  C   UNL     1       3.895 -10.058   6.303  1.00  0.00     0.042 C 
BRANCH  13  14
HETATM   14  C   UNL     1       4.812 -10.488   7.448  1.00  0.00    -0.019 C 
HETATM   15  C   UNL     1       4.002 -10.579   8.743  1.00  0.00     0.010 C 
HETATM   16  C   UNL     1       5.420 -11.854   7.130  1.00  0.00     0.010 C 
ENDBRANCH  13  14
ENDBRANCH   4  13
TORSDOF 5
ENDMDL
MODEL 18
REMARK VINA RESULT:    -4.798      4.501      6.006
REMARK INTER + INTRA:          -6.699
REMARK INTER:                  -5.888
REMARK INTRA:                  -0.811
REMARK UNBOUND:                -0.640
REMARK  5 active torsions:
REMARK  status: ('A' for Active; 'I' for Inactive)
REMARK    1  A    between atoms: C_1  and  C_6 
REMARK    2  A    between atoms: C_1  and  O_14 
REMARK    3  A    between atoms: C_2  and  C_3 
REMARK    4  A    between atoms: C_2  and  C_11 
REMARK    5  A    between atoms: C_6  and  C_8 
ROOT
HETATM    1  C   UNL     1       4.166  -9.546   5.935  1.00  0.00    -0.044 A 
HETATM    2  C   UNL     1       5.167  -8.648   5.615  1.00  0.00     0.008 A 
HETATM    3  C   UNL     1       5.037  -7.318   5.963  1.00  0.00     0.007 A 
HETATM    4  C   UNL     1       3.906  -6.884   6.628  1.00  0.00    -0.058 A 
HETATM    5  C   UNL     1       2.908  -7.783   6.953  1.00  0.00     0.007 A 
HETATM    6  C   UNL     1       3.036  -9.113   6.601  1.00  0.00     0.008 A 
ENDROOT
BRANCH   1   7
HETATM    7  C   UNL     1       4.306 -10.998   5.555  1.00  0.00     0.112 C 
HETATM    8  C   UNL     1       5.281 -11.684   6.512  1.00  0.00     0.026 C 
BRANCH   7   9
HETATM    9  C   UNL     1       4.828 -11.100   4.146  1.00  0.00     0.148 C 
HETATM   10  O   UNL     1       4.111 -10.821   3.215  1.00  0.00    -0.649 OA
BRANCH   9  11
HETATM   11  O   UNL     1       6.089 -11.503   3.925  1.00  0.00    -0.776 OA
HETATM   12  H   UNL     1       6.277 -12.438   3.763  1.00  0.00     0.167 HD
ENDBRANCH   9  11
ENDBRANCH   7   9
ENDBRANCH   1   7
BRANCH   4  13
HETATM   13  C   UNL     1       3.766  -5.432   7.007  1.00  0.00     0.042 C 
BRANCH  13  14
HETATM   14  C   UNL     1       3.617  -4.587   5.741  1.00  0.00    -0.019 C 
HETATM   15  C   UNL     1       2.139  -4.257   5.519  1.00  0.00     0.010 C 
HETATM   16  C   UNL     1       4.410  -3.290   5.897  1.00  0.00     0.010 C 
ENDBRANCH  13  14
ENDBRANCH   4  13
TORSDOF 5
ENDMDL
MODEL 19
REMARK VINA RESULT:    -4.726     13.029     15.333
REMARK INTER + INTRA:          -6.608
REMARK INTER:                  -5.916
REMARK INTRA:                  -0.692
REMARK UNBOUND:                -0.640
REMARK  5 active torsions:
REMARK  status: ('A' for Active; 'I' for Inactive)
REMARK    1  A    between atoms: C_1  and  C_6 
REMARK    2  A    between atoms: C_1  and  O_14 
REMARK    3  A    between atoms: C_2  and  C_3 
REMARK    4  A    between atoms: C_2  and  C_11 
REMARK    5  A    between atoms: C_6  and  C_8 
ROOT
HETATM    1  C   UNL     1       8.142  -2.147  -1.887  1.00  0.00    -0.044 A 
HETATM    2  C   UNL     1       9.305  -1.405  -1.973  1.00  0.00     0.008 A 
HETATM    3  C   UNL     1       9.373  -0.158  -1.381  1.00  0.00     0.007 A 
HETATM    4  C   UNL     1       8.278   0.347  -0.706  1.00  0.00    -0.058 A 
HETATM    5  C   UNL     1       7.118  -0.398  -0.616  1.00  0.00     0.007 A 
HETATM    6  C   UNL     1       7.048  -1.643  -1.211  1.00  0.00     0.008 A 
ENDROOT
BRANCH   1   7
HETATM    7  C   UNL     1       8.067  -3.507  -2.533  1.00  0.00     0.112 C 
HETATM    8  C   UNL     1       6.975  -4.335  -1.855  1.00  0.00     0.026 C 
BRANCH   7   9
HETATM    9  C   UNL     1       9.392  -4.207  -2.387  1.00  0.00     0.148 C 
HETATM   10  O   UNL     1       9.732  -4.638  -1.311  1.00  0.00    -0.649 OA
BRANCH   9  11
HETATM   11  O   UNL     1      10.198  -4.350  -3.451  1.00  0.00    -0.776 OA
HETATM   12  H   UNL     1      10.499  -3.570  -3.938  1.00  0.00     0.167 HD
ENDBRANCH   9  11
ENDBRANCH   7   9
ENDBRANCH   1   7
BRANCH   4  13
HETATM   13  C   UNL     1       8.353   1.707  -0.061  1.00  0.00     0.042 C 
BRANCH  13  14
HETATM   14  C   UNL     1       9.596   2.442  -0.563  1.00  0.00    -0.019 C 
HETATM   15  C   UNL     1       9.173   3.699  -1.325  1.00  0.00     0.010 C 
HETATM   16  C   UNL     1      10.471   2.837   0.627  1.00  0.00     0.010 C 
ENDBRANCH  13  14
ENDBRANCH   4  13
TORSDOF 5
ENDMDL
MODEL 20
REMARK VINA RESULT:    -4.632      2.658      4.018
REMARK INTER + INTRA:          -6.490
REMARK INTER:                  -5.850
REMARK INTRA:                  -0.640
REMARK UNBOUND:                -0.640
REMARK  5 active torsions:
REMARK  status: ('A' for Active; 'I' for Inactive)
REMARK    1  A    between atoms: C_1  and  C_6 
REMARK    2  A    between atoms: C_1  and  O_14 
REMARK    3  A    between atoms: C_2  and  C_3 
REMARK    4  A    between atoms: C_2  and  C_11 
REMARK    5  A    between atoms: C_6  and  C_8 
ROOT
HETATM    1  C   UNL     1       5.036 -11.799   8.009  1.00  0.00    -0.044 A 
HETATM    2  C   UNL     1       4.343 -10.892   8.789  1.00  0.00     0.008 A 
HETATM    3  C   UNL     1       3.693  -9.826   8.197  1.00  0.00     0.007 A 
HETATM    4  C   UNL     1       3.738  -9.666   6.825  1.00  0.00    -0.058 A 
HETATM    5  C   UNL     1       4.426 -10.574   6.045  1.00  0.00     0.007 A 
HETATM    6  C   UNL     1       5.080 -11.638   6.638  1.00  0.00     0.008 A 
ENDROOT
BRANCH   1   7
HETATM    7  C   UNL     1       5.746 -12.961   8.654  1.00  0.00     0.112 C 
HETATM    8  C   UNL     1       5.763 -12.770  10.171  1.00  0.00     0.026 C 
BRANCH   7   9
HETATM    9  C   UNL     1       7.160 -13.034   8.141  1.00  0.00     0.148 C 
HETATM   10  O   UNL     1       7.621 -14.094   7.791  1.00  0.00    -0.649 OA
BRANCH   9  11
HETATM   11  O   UNL     1       7.908 -11.921   8.072  1.00  0.00    -0.776 OA
HETATM   12  H   UNL     1       7.529 -11.067   8.326  1.00  0.00     0.167 HD
ENDBRANCH   9  11
ENDBRANCH   7   9
ENDBRANCH   1   7
BRANCH   4  13
HETATM   13  C   UNL     1       3.029  -8.502   6.180  1.00  0.00     0.042 C 
BRANCH  13  14
HETATM   14  C   UNL     1       3.637  -7.193   6.683  1.00  0.00    -0.019 C 
HETATM   15  C   UNL     1       5.002  -6.977   6.026  1.00  0.00     0.010 C 
HETATM   16  C   UNL     1       2.711  -6.030   6.326  1.00  0.00     0.010 C 
ENDBRANCH  13  14
ENDBRANCH   4  13
TORSDOF 5
ENDMDL
