REMARK  6 active torsions:
REMARK  status: ('A' for Active; 'I' for Inactive)
REMARK    1  A    between atoms: O_4  and  C_14 
REMARK    2  A    between atoms: C_13  and  C_14 
REMARK    3  A    between atoms: C_19  and  C_20 
REMARK    4  A    between atoms: C_25  and  C_28 
REMARK    5  A    between atoms: O_35  and  C_40 
REMARK    6  A    between atoms: C_38  and  C_40 
ROOT
HETATM    1 CL   UNK A   1      -3.646  -4.063  -0.236  1.00  0.00    -0.122 Cl
HETATM    2  O   UNK A   1      -1.132  -1.802  -1.347  1.00  0.00    -0.271 OA
HETATM    3  O   UNK A   1      -3.108   2.162  -0.480  1.00  0.00    -0.271 OA
HETATM    4  N   UNK A   1      -3.178  -0.135  -0.319  1.00  0.00    -0.335 N 
HETATM    5  N   UNK A   1      -1.047   2.182   1.349  1.00  0.00    -0.346 N 
HETATM    6  C   UNK A   1      -2.882  -1.434   0.298  1.00  0.00     0.197 C 
HETATM    7  C   UNK A   1      -3.999  -2.330  -0.254  1.00  0.00     0.116 C 
HETATM    8  C   UNK A   1      -4.231  -1.792  -1.664  1.00  0.00     0.043 C 
HETATM    9  C   UNK A   1      -4.045  -0.290  -1.485  1.00  0.00     0.128 C 
HETATM   10  C   UNK A   1      -1.479  -1.856  -0.169  1.00  0.00     0.242 C 
HETATM   11  C   UNK A   1      -2.825   1.128   0.135  1.00  0.00     0.245 C 
HETATM   12  C   UNK A   1      -2.112   1.203   1.481  1.00  0.00     0.200 C 
HETATM   13  H   UNK A   1      -1.123   2.893   0.627  1.00  0.00     0.163 HD
HETATM   14  O   UNK A   2       1.720  -1.868  -1.058  1.00  0.00    -0.271 OA
HETATM   15  N   UNK A   2      -0.689  -2.329   0.870  1.00  0.00    -0.346 N 
HETATM   16  C   UNK A   2       0.572  -3.048   0.715  1.00  0.00     0.176 C 
HETATM   17  C   UNK A   2       1.667  -2.152   0.138  1.00  0.00     0.241 C 
HETATM   18  H   UNK A   2      -1.066  -2.291   1.813  1.00  0.00     0.163 HD
HETATM   19  O   UNK A   0       0.246   1.396   3.110  1.00  0.00    -0.274 OA
HETATM   20  C   UNK A   0       2.021   2.428   0.503  1.00  0.00     0.126 C 
HETATM   21  C   UNK A   0       1.199   3.047   1.653  1.00  0.00     0.132 C 
HETATM   22  C   UNK A   0       0.087   2.135   2.140  1.00  0.00     0.220 C 
HETATM   23  O   UNK A   3       4.324   0.986  -0.521  1.00  0.00    -0.271 OA
HETATM   24  N   UNK A   3       2.549  -1.684   1.101  1.00  0.00    -0.344 N 
HETATM   25  N   UNK A   3       2.447   1.064   0.829  1.00  0.00    -0.350 N 
HETATM   26  C   UNK A   3       3.788  -0.966   0.805  1.00  0.00     0.200 C 
HETATM   27  C   UNK A   3       3.538   0.437   0.250  1.00  0.00     0.243 C 
HETATM   28  H   UNK A   3       2.388  -1.931   2.073  1.00  0.00     0.163 HD
HETATM   29  H   UNK A   3       1.866   0.517   1.457  1.00  0.00     0.163 HD
ENDROOT
BRANCH  20  30
HETATM   30  C   UNK A   0       1.317   2.524  -0.841  1.00  0.00    -0.035 A 
HETATM   31  C   UNK A   0       0.468   1.499  -1.259  1.00  0.00     0.009 A 
HETATM   32  C   UNK A   0      -0.177   1.587  -2.493  1.00  0.00     0.001 A 
HETATM   33  C   UNK A   0       0.026   2.700  -3.308  1.00  0.00     0.000 A 
HETATM   34  C   UNK A   0       0.875   3.725  -2.890  1.00  0.00     0.001 A 
HETATM   35  C   UNK A   0       1.520   3.637  -1.657  1.00  0.00     0.009 A 
ENDBRANCH  20  30
BRANCH  26  36
HETATM   36  C   UNK A   3       4.734  -1.778  -0.072  1.00  0.00     0.199 C 
BRANCH  36  37
HETATM   37  O   UNK A   3       6.064  -1.376   0.201  1.00  0.00    -0.398 OA
HETATM   38  H   UNK A   3       6.259  -1.601   1.126  1.00  0.00     0.209 HD
ENDBRANCH  36  37
ENDBRANCH  26  36
BRANCH  12  39
HETATM   39  C   UNK A   1      -3.105   1.596   2.567  1.00  0.00     0.199 C 
BRANCH  39  40
HETATM   40  O   UNK A   1      -3.644   2.866   2.249  1.00  0.00    -0.398 OA
HETATM   41  H   UNK A   1      -4.274   3.095   2.954  1.00  0.00     0.209 HD
ENDBRANCH  39  40
ENDBRANCH  12  39
BRANCH  16  42
HETATM   42  C   UNK A   2       0.416  -4.316  -0.119  1.00  0.00     0.030 C 
HETATM   43  C   UNK A   2       1.723  -5.083  -0.222  1.00  0.00     0.007 C 
ENDBRANCH  16  42
TORSDOF 6
