MODEL 1
REMARK VINA RESULT:    -8.364      0.000      0.000
REMARK INTER + INTRA:         -11.414
REMARK INTER:                 -10.549
REMARK INTRA:                  -0.866
REMARK UNBOUND:                -0.605
REMARK  6 active torsions:
REMARK  status: ('A' for Active; 'I' for Inactive)
REMARK    1  A    between atoms: O_5  and  C_15 
REMARK    2  A    between atoms: C_14  and  C_15 
REMARK    3  A    between atoms: C_20  and  C_21 
REMARK    4  A    between atoms: C_26  and  C_29 
REMARK    5  A    between atoms: O_36  and  C_41 
REMARK    6  A    between atoms: C_39  and  C_41 
ROOT
HETATM    1 CL   UNK A   1      12.440  -0.526  13.329  1.00  0.00    -0.111 Cl
HETATM    2 CL   UNK A   1      14.709  -0.803  10.982  1.00  0.00    -0.112 Cl
HETATM    3  O   UNK A   1      10.841   1.081  11.146  1.00  0.00    -0.270 OA
HETATM    4  O   UNK A   1      11.600  -3.242   7.733  1.00  0.00    -0.270 OA
HETATM    5  N   UNK A   1      11.825  -2.121   9.734  1.00  0.00    -0.310 N 
HETATM    6  N   UNK A   1       9.659  -1.481   6.967  1.00  0.00    -0.337 N 
HETATM    7  C   UNK A   1      11.366  -1.253  10.833  1.00  0.00     0.179 C 
HETATM    8  C   UNK A   1      12.264  -1.685  12.004  1.00  0.00     0.126 C 
HETATM    9  C   UNK A   1      13.580  -2.134  11.355  1.00  0.00     0.120 C 
HETATM   10  C   UNK A   1      13.088  -2.783  10.065  1.00  0.00     0.122 C 
HETATM   11  C   UNK A   1      11.432   0.239  10.467  1.00  0.00     0.252 C 
HETATM   12  C   UNK A   1      11.143  -2.456   8.570  1.00  0.00     0.257 C 
HETATM   13  C   UNK A   1       9.760  -1.841   8.376  1.00  0.00     0.189 C 
HETATM   14  H   UNK A   1       9.835  -2.207   6.278  1.00  0.00     0.164 HD
HETATM   15  O   UNK A   2      13.227   0.734   6.895  1.00  0.00    -0.271 OA
HETATM   16  N   UNK A   2      12.231   0.541   9.381  1.00  0.00    -0.337 N 
HETATM   17  C   UNK A   2      12.395   1.886   8.852  1.00  0.00     0.159 C 
HETATM   18  C   UNK A   2      12.715   1.746   7.369  1.00  0.00     0.251 C 
HETATM   19  H   UNK A   2      12.738  -0.213   8.928  1.00  0.00     0.164 HD
HETATM   20  O   UNK A   0       9.153   0.766   7.269  1.00  0.00    -0.272 OA
HETATM   21  C   UNK A   0       9.201   1.345   4.495  1.00  0.00     0.112 C 
HETATM   22  C   UNK A   0       9.380  -0.097   5.013  1.00  0.00     0.114 C 
HETATM   23  C   UNK A   0       9.382  -0.191   6.534  1.00  0.00     0.233 C 
HETATM   24  O   UNK A   3      12.013   1.320   3.594  1.00  0.00    -0.270 OA
HETATM   25  N   UNK A   3      12.381   2.886   6.649  1.00  0.00    -0.336 N 
HETATM   26  N   UNK A   3      10.316   2.199   4.918  1.00  0.00    -0.341 N 
HETATM   27  C   UNK A   3      12.574   3.031   5.209  1.00  0.00     0.189 C 
HETATM   28  C   UNK A   3      11.633   2.062   4.496  1.00  0.00     0.253 C 
HETATM   29  H   UNK A   3      11.986   3.679   7.145  1.00  0.00     0.164 HD
HETATM   30  H   UNK A   3      10.115   2.887   5.637  1.00  0.00     0.163 HD
ENDROOT
BRANCH  21  31
HETATM   31  C   UNK A   0       8.923   1.485   3.008  1.00  0.00    -0.002 A 
HETATM   32  C   UNK A   0       9.492   0.586   2.105  1.00  0.00    -0.003 A 
HETATM   33  C   UNK A   0       9.237   0.714   0.740  1.00  0.00    -0.000 A 
HETATM   34  C   UNK A   0       8.414   1.741   0.277  1.00  0.00    -0.000 A 
HETATM   35  C   UNK A   0       7.845   2.639   1.181  1.00  0.00    -0.000 A 
HETATM   36  C   UNK A   0       8.100   2.511   2.545  1.00  0.00    -0.003 A 
ENDBRANCH  21  31
BRANCH  27  37
HETATM   37  C   UNK A   3      14.029   2.886   4.784  1.00  0.00     0.169 C 
BRANCH  37  38
HETATM   38  O   UNK A   3      14.143   3.257   3.422  1.00  0.00    -0.380 OA
HETATM   39  H   UNK A   3      13.995   4.216   3.362  1.00  0.00     0.211 HD
ENDBRANCH  37  38
ENDBRANCH  27  37
BRANCH  13  40
HETATM   40  C   UNK A   1       8.685  -2.851   8.752  1.00  0.00     0.169 C 
BRANCH  40  41
HETATM   41  O   UNK A   1       8.873  -4.025   7.982  1.00  0.00    -0.380 OA
HETATM   42  H   UNK A   1       9.132  -4.733   8.595  1.00  0.00     0.211 HD
ENDBRANCH  40  41
ENDBRANCH  13  40
BRANCH  17  43
HETATM   43  C   UNK A   2      13.506   2.635   9.570  1.00  0.00     0.032 C 
HETATM   44  C   UNK A   2      12.956   3.755  10.436  1.00  0.00     0.003 C 
ENDBRANCH  17  43
TORSDOF 6
ENDMDL
MODEL 2
REMARK VINA RESULT:    -8.076      1.260      1.415
REMARK INTER + INTRA:         -11.042
REMARK INTER:                 -10.062
REMARK INTRA:                  -0.980
REMARK UNBOUND:                -0.605
REMARK  6 active torsions:
REMARK  status: ('A' for Active; 'I' for Inactive)
REMARK    1  A    between atoms: O_5  and  C_15 
REMARK    2  A    between atoms: C_14  and  C_15 
REMARK    3  A    between atoms: C_20  and  C_21 
REMARK    4  A    between atoms: C_26  and  C_29 
REMARK    5  A    between atoms: O_36  and  C_41 
REMARK    6  A    between atoms: C_39  and  C_41 
ROOT
HETATM    1 CL   UNK A   1      10.551   0.659  13.113  1.00  0.00    -0.111 Cl
HETATM    2 CL   UNK A   1      13.057  -0.141  11.161  1.00  0.00    -0.112 Cl
HETATM    3  O   UNK A   1       9.451   2.133  10.559  1.00  0.00    -0.270 OA
HETATM    4  O   UNK A   1      10.132  -2.640   7.790  1.00  0.00    -0.270 OA
HETATM    5  N   UNK A   1      10.225  -1.305   9.666  1.00  0.00    -0.310 N 
HETATM    6  N   UNK A   1       8.528  -0.802   6.564  1.00  0.00    -0.337 N 
HETATM    7  C   UNK A   1       9.733  -0.264  10.585  1.00  0.00     0.179 C 
HETATM    8  C   UNK A   1      10.414  -0.634  11.913  1.00  0.00     0.126 C 
HETATM    9  C   UNK A   1      11.740  -1.292  11.513  1.00  0.00     0.120 C 
HETATM   10  C   UNK A   1      11.347  -2.045  10.245  1.00  0.00     0.122 C 
HETATM   11  C   UNK A   1      10.022   1.156  10.069  1.00  0.00     0.252 C 
HETATM   12  C   UNK A   1       9.666  -1.713   8.461  1.00  0.00     0.257 C 
HETATM   13  C   UNK A   1       8.402  -0.990   8.003  1.00  0.00     0.189 C 
HETATM   14  H   UNK A   1       8.706  -1.623   5.991  1.00  0.00     0.164 HD
HETATM   15  O   UNK A   2      12.312   1.011   6.758  1.00  0.00    -0.271 OA
HETATM   16  N   UNK A   2      10.986   1.236   9.082  1.00  0.00    -0.337 N 
HETATM   17  C   UNK A   2      11.374   2.480   8.436  1.00  0.00     0.159 C 
HETATM   18  C   UNK A   2      11.867   2.122   7.039  1.00  0.00     0.251 C 
HETATM   19  H   UNK A   2      11.455   0.383   8.793  1.00  0.00     0.164 HD
HETATM   20  O   UNK A   0       8.257   1.505   6.539  1.00  0.00    -0.272 OA
HETATM   21  C   UNK A   0       8.733   1.722   3.754  1.00  0.00     0.112 C 
HETATM   22  C   UNK A   0       8.671   0.347   4.449  1.00  0.00     0.114 C 
HETATM   23  C   UNK A   0       8.465   0.445   5.955  1.00  0.00     0.233 C 
HETATM   24  O   UNK A   3      11.616   1.298   3.273  1.00  0.00    -0.270 OA
HETATM   25  N   UNK A   3      11.766   3.190   6.157  1.00  0.00    -0.336 N 
HETATM   26  N   UNK A   3       9.877   2.504   4.235  1.00  0.00    -0.341 N 
HETATM   27  C   UNK A   3      12.161   3.133   4.753  1.00  0.00     0.189 C 
HETATM   28  C   UNK A   3      11.212   2.183   4.024  1.00  0.00     0.253 C 
HETATM   29  H   UNK A   3      11.406   4.076   6.500  1.00  0.00     0.164 HD
HETATM   30  H   UNK A   3       9.667   3.295   4.837  1.00  0.00     0.163 HD
ENDROOT
BRANCH  21  31
HETATM   31  C   UNK A   0       8.670   1.701   2.236  1.00  0.00    -0.002 A 
HETATM   32  C   UNK A   0       8.893   0.510   1.545  1.00  0.00    -0.003 A 
HETATM   33  C   UNK A   0       8.835   0.490   0.152  1.00  0.00    -0.000 A 
HETATM   34  C   UNK A   0       8.554   1.662  -0.551  1.00  0.00    -0.000 A 
HETATM   35  C   UNK A   0       8.330   2.853   0.140  1.00  0.00    -0.000 A 
HETATM   36  C   UNK A   0       8.389   2.872   1.533  1.00  0.00    -0.003 A 
ENDBRANCH  21  31
BRANCH  27  37
HETATM   37  C   UNK A   3      13.631   2.788   4.559  1.00  0.00     0.169 C 
BRANCH  37  38
HETATM   38  O   UNK A   3      14.016   3.160   3.248  1.00  0.00    -0.380 OA
HETATM   39  H   UNK A   3      13.280   3.656   2.851  1.00  0.00     0.211 HD
ENDBRANCH  37  38
ENDBRANCH  27  37
BRANCH  13  40
HETATM   40  C   UNK A   1       7.176  -1.830   8.331  1.00  0.00     0.169 C 
BRANCH  40  41
HETATM   41  O   UNK A   1       7.202  -3.004   7.540  1.00  0.00    -0.380 OA
HETATM   42  H   UNK A   1       6.284  -3.203   7.289  1.00  0.00     0.211 HD
ENDBRANCH  40  41
ENDBRANCH  13  40
BRANCH  17  43
HETATM   43  C   UNK A   2      12.464   3.196   9.219  1.00  0.00     0.032 C 
HETATM   44  C   UNK A   2      13.830   2.585   8.961  1.00  0.00     0.003 C 
ENDBRANCH  17  43
TORSDOF 6
ENDMDL
MODEL 3
REMARK VINA RESULT:    -7.905      2.217      2.766
REMARK INTER + INTRA:         -10.820
REMARK INTER:                 -10.012
REMARK INTRA:                  -0.808
REMARK UNBOUND:                -0.605
REMARK  6 active torsions:
REMARK  status: ('A' for Active; 'I' for Inactive)
REMARK    1  A    between atoms: O_5  and  C_15 
REMARK    2  A    between atoms: C_14  and  C_15 
REMARK    3  A    between atoms: C_20  and  C_21 
REMARK    4  A    between atoms: C_26  and  C_29 
REMARK    5  A    between atoms: O_36  and  C_41 
REMARK    6  A    between atoms: C_39  and  C_41 
ROOT
HETATM    1 CL   UNK A   1      15.407  -0.462  11.420  1.00  0.00    -0.111 Cl
HETATM    2 CL   UNK A   1      15.563  -1.198   8.232  1.00  0.00    -0.112 Cl
HETATM    3  O   UNK A   1      12.846   1.168  10.588  1.00  0.00    -0.270 OA
HETATM    4  O   UNK A   1      10.975  -3.458   8.136  1.00  0.00    -0.270 OA
HETATM    5  N   UNK A   1      12.510  -2.229   9.338  1.00  0.00    -0.310 N 
HETATM    6  N   UNK A   1       9.093  -1.527   8.568  1.00  0.00    -0.337 N 
HETATM    7  C   UNK A   1      12.926  -1.231  10.339  1.00  0.00     0.179 C 
HETATM    8  C   UNK A   1      14.350  -1.685  10.699  1.00  0.00     0.126 C 
HETATM    9  C   UNK A   1      14.894  -2.344   9.425  1.00  0.00     0.120 C 
HETATM   10  C   UNK A   1      13.647  -3.020   8.863  1.00  0.00     0.122 C 
HETATM   11  C   UNK A   1      12.806   0.210   9.814  1.00  0.00     0.252 C 
HETATM   12  C   UNK A   1      11.217  -2.560   8.950  1.00  0.00     0.257 C 
HETATM   13  C   UNK A   1      10.076  -1.792   9.611  1.00  0.00     0.189 C 
HETATM   14  H   UNK A   1       8.740  -2.319   8.037  1.00  0.00     0.164 HD
HETATM   15  O   UNK A   2      11.839   0.206   5.903  1.00  0.00    -0.271 OA
HETATM   16  N   UNK A   2      12.710   0.326   8.440  1.00  0.00    -0.337 N 
HETATM   17  C   UNK A   2      12.550   1.596   7.751  1.00  0.00     0.159 C 
HETATM   18  C   UNK A   2      11.813   1.307   6.449  1.00  0.00     0.251 C 
HETATM   19  H   UNK A   2      12.760  -0.518   7.878  1.00  0.00     0.164 HD
HETATM   20  O   UNK A   0       9.017   0.782   8.809  1.00  0.00    -0.272 OA
HETATM   21  C   UNK A   0       7.261   1.143   6.613  1.00  0.00     0.112 C 
HETATM   22  C   UNK A   0       7.667  -0.267   7.088  1.00  0.00     0.114 C 
HETATM   23  C   UNK A   0       8.662  -0.248   8.242  1.00  0.00     0.233 C 
HETATM   24  O   UNK A   3       8.787   0.695   4.125  1.00  0.00    -0.270 OA
HETATM   25  N   UNK A   3      11.143   2.424   5.965  1.00  0.00    -0.336 N 
HETATM   26  N   UNK A   3       8.419   1.877   6.092  1.00  0.00    -0.341 N 
HETATM   27  C   UNK A   3      10.351   2.436   4.739  1.00  0.00     0.189 C 
HETATM   28  C   UNK A   3       9.128   1.544   4.945  1.00  0.00     0.253 C 
HETATM   29  H   UNK A   3      11.207   3.295   6.482  1.00  0.00     0.164 HD
HETATM   30  H   UNK A   3       8.771   2.637   6.667  1.00  0.00     0.163 HD
ENDROOT
BRANCH  21  31
HETATM   31  C   UNK A   0       6.083   1.206   5.656  1.00  0.00    -0.002 A 
HETATM   32  C   UNK A   0       5.263   0.090   5.485  1.00  0.00    -0.003 A 
HETATM   33  C   UNK A   0       4.181   0.148   4.607  1.00  0.00    -0.000 A 
HETATM   34  C   UNK A   0       3.920   1.321   3.898  1.00  0.00    -0.000 A 
HETATM   35  C   UNK A   0       4.740   2.437   4.070  1.00  0.00    -0.000 A 
HETATM   36  C   UNK A   0       5.821   2.378   4.948  1.00  0.00    -0.003 A 
ENDBRANCH  21  31
BRANCH  27  37
HETATM   37  C   UNK A   3      11.161   2.076   3.501  1.00  0.00     0.169 C 
BRANCH  37  38
HETATM   38  O   UNK A   3      12.490   2.536   3.678  1.00  0.00    -0.380 OA
HETATM   39  H   UNK A   3      12.554   2.922   4.568  1.00  0.00     0.211 HD
ENDBRANCH  37  38
ENDBRANCH  27  37
BRANCH  13  40
HETATM   40  C   UNK A   1       9.466  -2.626  10.728  1.00  0.00     0.169 C 
BRANCH  40  41
HETATM   41  O   UNK A   1       8.982  -3.839  10.178  1.00  0.00    -0.380 OA
HETATM   42  H   UNK A   1       8.453  -4.276  10.866  1.00  0.00     0.211 HD
ENDBRANCH  40  41
ENDBRANCH  13  40
BRANCH  17  43
HETATM   43  C   UNK A   2      13.894   2.250   7.469  1.00  0.00     0.032 C 
HETATM   44  C   UNK A   2      14.203   3.347   8.473  1.00  0.00     0.003 C 
ENDBRANCH  17  43
TORSDOF 6
ENDMDL
MODEL 4
REMARK VINA RESULT:    -7.842      2.220      4.879
REMARK INTER + INTRA:         -10.739
REMARK INTER:                  -9.619
REMARK INTRA:                  -1.121
REMARK UNBOUND:                -0.605
REMARK  6 active torsions:
REMARK  status: ('A' for Active; 'I' for Inactive)
REMARK    1  A    between atoms: O_5  and  C_15 
REMARK    2  A    between atoms: C_14  and  C_15 
REMARK    3  A    between atoms: C_20  and  C_21 
REMARK    4  A    between atoms: C_26  and  C_29 
REMARK    5  A    between atoms: O_36  and  C_41 
REMARK    6  A    between atoms: C_39  and  C_41 
ROOT
HETATM    1 CL   UNK A   1      11.631  -0.881  12.105  1.00  0.00    -0.111 Cl
HETATM    2 CL   UNK A   1       9.458   1.513  11.577  1.00  0.00    -0.112 Cl
HETATM    3  O   UNK A   1      11.032  -1.646   9.112  1.00  0.00    -0.270 OA
HETATM    4  O   UNK A   1      12.144   3.635   7.776  1.00  0.00    -0.270 OA
HETATM    5  N   UNK A   1      11.918   1.877   9.248  1.00  0.00    -0.310 N 
HETATM    6  N   UNK A   1      12.144   1.880   5.684  1.00  0.00    -0.337 N 
HETATM    7  C   UNK A   1      12.044   0.471   9.673  1.00  0.00     0.179 C 
HETATM    8  C   UNK A   1      12.064   0.581  11.207  1.00  0.00     0.126 C 
HETATM    9  C   UNK A   1      11.216   1.817  11.531  1.00  0.00     0.120 C 
HETATM   10  C   UNK A   1      11.558   2.746  10.369  1.00  0.00     0.122 C 
HETATM   11  C   UNK A   1      10.932  -0.418   9.090  1.00  0.00     0.252 C 
HETATM   12  C   UNK A   1      12.235   2.425   8.011  1.00  0.00     0.257 C 
HETATM   13  C   UNK A   1      12.755   1.469   6.941  1.00  0.00     0.189 C 
HETATM   14  H   UNK A   1      12.259   2.848   5.394  1.00  0.00     0.164 HD
HETATM   15  O   UNK A   2       8.208   1.827   7.149  1.00  0.00    -0.271 OA
HETATM   16  N   UNK A   2       9.830   0.263   8.610  1.00  0.00    -0.337 N 
HETATM   17  C   UNK A   2       8.691  -0.391   7.985  1.00  0.00     0.159 C 
HETATM   18  C   UNK A   2       8.077   0.612   7.016  1.00  0.00     0.251 C 
HETATM   19  H   UNK A   2       9.807   1.274   8.701  1.00  0.00     0.164 HD
HETATM   20  O   UNK A   0      11.170  -0.158   5.144  1.00  0.00    -0.272 OA
HETATM   21  C   UNK A   0       9.876   0.855   2.835  1.00  0.00     0.112 C 
HETATM   22  C   UNK A   0      10.832   1.735   3.666  1.00  0.00     0.114 C 
HETATM   23  C   UNK A   0      11.380   1.026   4.899  1.00  0.00     0.233 C 
HETATM   24  O   UNK A   3       7.626   2.557   3.708  1.00  0.00    -0.270 OA
HETATM   25  N   UNK A   3       7.357  -0.008   6.003  1.00  0.00    -0.336 N 
HETATM   26  N   UNK A   3       8.686   0.491   3.612  1.00  0.00    -0.341 N 
HETATM   27  C   UNK A   3       6.665   0.706   4.934  1.00  0.00     0.189 C 
HETATM   28  C   UNK A   3       7.712   1.380   4.049  1.00  0.00     0.253 C 
HETATM   29  H   UNK A   3       7.291  -1.022   6.000  1.00  0.00     0.164 HD
HETATM   30  H   UNK A   3       8.622  -0.475   3.919  1.00  0.00     0.163 HD
ENDROOT
BRANCH  21  31
HETATM   31  C   UNK A   0       9.503   1.393   1.464  1.00  0.00    -0.002 A 
HETATM   32  C   UNK A   0       8.510   0.762   0.714  1.00  0.00    -0.003 A 
HETATM   33  C   UNK A   0       8.167   1.256  -0.544  1.00  0.00    -0.000 A 
HETATM   34  C   UNK A   0       8.818   2.380  -1.053  1.00  0.00    -0.000 A 
HETATM   35  C   UNK A   0       9.810   3.012  -0.303  1.00  0.00    -0.000 A 
HETATM   36  C   UNK A   0      10.153   2.517   0.955  1.00  0.00    -0.003 A 
ENDBRANCH  21  31
BRANCH  27  37
HETATM   37  C   UNK A   3       5.599   1.664   5.448  1.00  0.00     0.169 C 
BRANCH  37  38
HETATM   38  O   UNK A   3       4.810   2.094   4.353  1.00  0.00    -0.380 OA
HETATM   39  H   UNK A   3       5.185   2.929   4.026  1.00  0.00     0.211 HD
ENDBRANCH  37  38
ENDBRANCH  27  37
BRANCH  13  40
HETATM   40  C   UNK A   1      14.272   1.557   6.857  1.00  0.00     0.169 C 
BRANCH  40  41
HETATM   41  O   UNK A   1      14.619   2.578   5.939  1.00  0.00    -0.380 OA
HETATM   42  H   UNK A   1      14.783   3.385   6.455  1.00  0.00     0.211 HD
ENDBRANCH  40  41
ENDBRANCH  13  40
BRANCH  17  43
HETATM   43  C   UNK A   2       7.666  -0.832   9.018  1.00  0.00     0.032 C 
HETATM   44  C   UNK A   2       7.430  -2.331   8.966  1.00  0.00     0.003 C 
ENDBRANCH  17  43
TORSDOF 6
ENDMDL
MODEL 5
REMARK VINA RESULT:    -7.471      3.120      4.243
REMARK INTER + INTRA:         -10.260
REMARK INTER:                  -9.468
REMARK INTRA:                  -0.791
REMARK UNBOUND:                -0.605
REMARK  6 active torsions:
REMARK  status: ('A' for Active; 'I' for Inactive)
REMARK    1  A    between atoms: O_5  and  C_15 
REMARK    2  A    between atoms: C_14  and  C_15 
REMARK    3  A    between atoms: C_20  and  C_21 
REMARK    4  A    between atoms: C_26  and  C_29 
REMARK    5  A    between atoms: O_36  and  C_41 
REMARK    6  A    between atoms: C_39  and  C_41 
ROOT
HETATM    1 CL   UNK A   1      15.192  -1.697  13.215  1.00  0.00    -0.111 Cl
HETATM    2 CL   UNK A   1      13.732  -4.199  11.684  1.00  0.00    -0.112 Cl
HETATM    3  O   UNK A   1      14.030   0.012  10.842  1.00  0.00    -0.270 OA
HETATM    4  O   UNK A   1       9.049  -2.166  12.010  1.00  0.00    -0.270 OA
HETATM    5  N   UNK A   1      11.314  -1.888  12.334  1.00  0.00    -0.310 N 
HETATM    6  N   UNK A   1       9.004   0.063  10.433  1.00  0.00    -0.337 N 
HETATM    7  C   UNK A   1      12.565  -1.112  12.395  1.00  0.00     0.179 C 
HETATM    8  C   UNK A   1      13.446  -1.960  13.328  1.00  0.00     0.126 C 
HETATM    9  C   UNK A   1      12.990  -3.407  13.101  1.00  0.00     0.120 C 
HETATM   10  C   UNK A   1      11.490  -3.234  12.881  1.00  0.00     0.122 C 
HETATM   11  C   UNK A   1      13.154  -0.840  11.001  1.00  0.00     0.252 C 
HETATM   12  C   UNK A   1      10.049  -1.440  11.973  1.00  0.00     0.257 C 
HETATM   13  C   UNK A   1       9.923   0.025  11.563  1.00  0.00     0.189 C 
HETATM   14  H   UNK A   1       8.088  -0.362  10.551  1.00  0.00     0.164 HD
HETATM   15  O   UNK A   2      11.067  -2.822   8.182  1.00  0.00    -0.271 OA
HETATM   16  N   UNK A   2      12.666  -1.648   9.992  1.00  0.00    -0.337 N 
HETATM   17  C   UNK A   2      13.065  -1.524   8.599  1.00  0.00     0.159 C 
HETATM   18  C   UNK A   2      11.900  -2.026   7.755  1.00  0.00     0.251 C 
HETATM   19  H   UNK A   2      11.998  -2.374  10.232  1.00  0.00     0.164 HD
HETATM   20  O   UNK A   0      10.414   1.145   8.938  1.00  0.00    -0.272 OA
HETATM   21  C   UNK A   0       8.588   0.950   6.779  1.00  0.00     0.112 C 
HETATM   22  C   UNK A   0       8.206   0.471   8.195  1.00  0.00     0.114 C 
HETATM   23  C   UNK A   0       9.342   0.607   9.201  1.00  0.00     0.233 C 
HETATM   24  O   UNK A   3       8.534  -1.858   5.865  1.00  0.00    -0.270 OA
HETATM   25  N   UNK A   3      11.913  -1.495   6.471  1.00  0.00    -0.336 N 
HETATM   26  N   UNK A   3       9.674   0.136   6.223  1.00  0.00    -0.341 N 
HETATM   27  C   UNK A   3      10.916  -1.797   5.449  1.00  0.00     0.189 C 
HETATM   28  C   UNK A   3       9.578  -1.210   5.893  1.00  0.00     0.253 C 
HETATM   29  H   UNK A   3      12.664  -0.863   6.211  1.00  0.00     0.164 HD
HETATM   30  H   UNK A   3      10.586   0.578   6.156  1.00  0.00     0.163 HD
ENDROOT
BRANCH  21  31
HETATM   31  C   UNK A   0       7.439   1.094   5.796  1.00  0.00    -0.002 A 
HETATM   32  C   UNK A   0       6.148   0.721   6.172  1.00  0.00    -0.003 A 
HETATM   33  C   UNK A   0       5.093   0.854   5.271  1.00  0.00    -0.000 A 
HETATM   34  C   UNK A   0       5.329   1.358   3.991  1.00  0.00    -0.000 A 
HETATM   35  C   UNK A   0       6.619   1.732   3.615  1.00  0.00    -0.000 A 
HETATM   36  C   UNK A   0       7.674   1.599   4.518  1.00  0.00    -0.003 A 
ENDBRANCH  21  31
BRANCH  27  37
HETATM   37  C   UNK A   3      10.844  -3.279   5.104  1.00  0.00     0.169 C 
BRANCH  37  38
HETATM   38  O   UNK A   3      11.614  -3.512   3.938  1.00  0.00    -0.380 OA
HETATM   39  H   UNK A   3      11.813  -4.462   3.898  1.00  0.00     0.211 HD
ENDBRANCH  37  38
ENDBRANCH  27  37
BRANCH  13  40
HETATM   40  C   UNK A   1       9.382   0.845  12.725  1.00  0.00     0.169 C 
BRANCH  40  41
HETATM   41  O   UNK A   1      10.374   1.773  13.128  1.00  0.00    -0.380 OA
HETATM   42  H   UNK A   1       9.915   2.589  13.390  1.00  0.00     0.211 HD
ENDBRANCH  40  41
ENDBRANCH  13  40
BRANCH  17  43
HETATM   43  C   UNK A   2      14.322  -2.330   8.305  1.00  0.00     0.032 C 
HETATM   44  C   UNK A   2      15.557  -1.446   8.278  1.00  0.00     0.003 C 
ENDBRANCH  17  43
TORSDOF 6
ENDMDL
MODEL 6
REMARK VINA RESULT:    -7.418      3.040      7.638
REMARK INTER + INTRA:         -10.192
REMARK INTER:                  -9.128
REMARK INTRA:                  -1.063
REMARK UNBOUND:                -0.605
REMARK  6 active torsions:
REMARK  status: ('A' for Active; 'I' for Inactive)
REMARK    1  A    between atoms: O_5  and  C_15 
REMARK    2  A    between atoms: C_14  and  C_15 
REMARK    3  A    between atoms: C_20  and  C_21 
REMARK    4  A    between atoms: C_26  and  C_29 
REMARK    5  A    between atoms: O_36  and  C_41 
REMARK    6  A    between atoms: C_39  and  C_41 
ROOT
HETATM    1 CL   UNK A   1       8.188   1.500   2.350  1.00  0.00    -0.111 Cl
HETATM    2 CL   UNK A   1       8.057   3.592   4.868  1.00  0.00    -0.112 Cl
HETATM    3  O   UNK A   1      10.527   0.177   3.988  1.00  0.00    -0.270 OA
HETATM    4  O   UNK A   1       7.062  -0.039   8.331  1.00  0.00    -0.270 OA
HETATM    5  N   UNK A   1       7.621   0.467   6.153  1.00  0.00    -0.310 N 
HETATM    6  N   UNK A   1       9.279  -1.621   8.531  1.00  0.00    -0.337 N 
HETATM    7  C   UNK A   1       8.276   0.223   4.856  1.00  0.00     0.179 C 
HETATM    8  C   UNK A   1       7.424   1.057   3.884  1.00  0.00     0.126 C 
HETATM    9  C   UNK A   1       6.907   2.236   4.717  1.00  0.00     0.120 C 
HETATM   10  C   UNK A   1       6.680   1.585   6.078  1.00  0.00     0.122 C 
HETATM   11  C   UNK A   1       9.774   0.569   4.882  1.00  0.00     0.252 C 
HETATM   12  C   UNK A   1       7.700  -0.305   7.306  1.00  0.00     0.257 C 
HETATM   13  C   UNK A   1       8.586  -1.547   7.251  1.00  0.00     0.189 C 
HETATM   14  H   UNK A   1       8.716  -1.613   9.377  1.00  0.00     0.164 HD
HETATM   15  O   UNK A   2      10.755   2.308   8.380  1.00  0.00    -0.271 OA
HETATM   16  N   UNK A   2      10.171   1.376   5.931  1.00  0.00    -0.337 N 
HETATM   17  C   UNK A   2      11.549   1.783   6.156  1.00  0.00     0.159 C 
HETATM   18  C   UNK A   2      11.704   2.022   7.653  1.00  0.00     0.251 C 
HETATM   19  H   UNK A   2       9.464   1.710   6.579  1.00  0.00     0.164 HD
HETATM   20  O   UNK A   0      11.446  -1.665   7.695  1.00  0.00    -0.272 OA
HETATM   21  C   UNK A   0      12.641  -1.595  10.264  1.00  0.00     0.112 C 
HETATM   22  C   UNK A   0      11.110  -1.686  10.097  1.00  0.00     0.114 C 
HETATM   23  C   UNK A   0      10.663  -1.653   8.641  1.00  0.00     0.233 C 
HETATM   24  O   UNK A   3      12.313   1.126  11.362  1.00  0.00    -0.270 OA
HETATM   25  N   UNK A   3      13.023   1.894   8.072  1.00  0.00    -0.336 N 
HETATM   26  N   UNK A   3      13.152  -0.320   9.748  1.00  0.00    -0.341 N 
HETATM   27  C   UNK A   3      13.464   2.066   9.453  1.00  0.00     0.189 C 
HETATM   28  C   UNK A   3      12.879   0.930  10.290  1.00  0.00     0.253 C 
HETATM   29  H   UNK A   3      13.736   1.679   7.382  1.00  0.00     0.164 HD
HETATM   30  H   UNK A   3      13.677  -0.359   8.880  1.00  0.00     0.163 HD
ENDROOT
BRANCH  21  31
HETATM   31  C   UNK A   0      13.175  -1.888  11.656  1.00  0.00    -0.002 A 
HETATM   32  C   UNK A   0      12.291  -2.200  12.690  1.00  0.00    -0.003 A 
HETATM   33  C   UNK A   0      12.780  -2.470  13.967  1.00  0.00    -0.000 A 
HETATM   34  C   UNK A   0      14.153  -2.426  14.212  1.00  0.00    -0.000 A 
HETATM   35  C   UNK A   0      15.036  -2.115  13.178  1.00  0.00    -0.000 A 
HETATM   36  C   UNK A   0      14.546  -1.845  11.901  1.00  0.00    -0.003 A 
ENDBRANCH  21  31
BRANCH  27  37
HETATM   37  C   UNK A   3      13.158   3.449  10.011  1.00  0.00     0.169 C 
BRANCH  37  38
HETATM   38  O   UNK A   3      13.639   4.422   9.101  1.00  0.00    -0.380 OA
HETATM   39  H   UNK A   3      13.893   5.208   9.613  1.00  0.00     0.211 HD
ENDBRANCH  37  38
ENDBRANCH  27  37
BRANCH  13  40
HETATM   40  C   UNK A   1       7.731  -2.786   7.028  1.00  0.00     0.169 C 
BRANCH  40  41
HETATM   41  O   UNK A   1       6.884  -2.963   8.150  1.00  0.00    -0.380 OA
HETATM   42  H   UNK A   1       7.012  -2.194   8.731  1.00  0.00     0.211 HD
ENDBRANCH  40  41
ENDBRANCH  13  40
BRANCH  17  43
HETATM   43  C   UNK A   2      11.891   3.043   5.377  1.00  0.00     0.032 C 
HETATM   44  C   UNK A   2      13.123   2.845   4.510  1.00  0.00     0.003 C 
ENDBRANCH  17  43
TORSDOF 6
ENDMDL
MODEL 7
REMARK VINA RESULT:    -7.311      3.874      8.390
REMARK INTER + INTRA:         -10.053
REMARK INTER:                  -8.820
REMARK INTRA:                  -1.233
REMARK UNBOUND:                -0.605
REMARK  6 active torsions:
REMARK  status: ('A' for Active; 'I' for Inactive)
REMARK    1  A    between atoms: O_5  and  C_15 
REMARK    2  A    between atoms: C_14  and  C_15 
REMARK    3  A    between atoms: C_20  and  C_21 
REMARK    4  A    between atoms: C_26  and  C_29 
REMARK    5  A    between atoms: O_36  and  C_41 
REMARK    6  A    between atoms: C_39  and  C_41 
ROOT
HETATM    1 CL   UNK A   1      10.981   2.926   4.773  1.00  0.00    -0.111 Cl
HETATM    2 CL   UNK A   1       9.828   0.257   3.262  1.00  0.00    -0.112 Cl
HETATM    3  O   UNK A   1       9.107   2.007   7.129  1.00  0.00    -0.270 OA
HETATM    4  O   UNK A   1      11.553  -2.976   6.831  1.00  0.00    -0.270 OA
HETATM    5  N   UNK A   1      11.232  -0.788   6.186  1.00  0.00    -0.310 N 
HETATM    6  N   UNK A   1      10.145  -2.506   9.123  1.00  0.00    -0.337 N 
HETATM    7  C   UNK A   1      10.966   0.643   6.418  1.00  0.00     0.179 C 
HETATM    8  C   UNK A   1      11.575   1.308   5.171  1.00  0.00     0.126 C 
HETATM    9  C   UNK A   1      11.429   0.268   4.052  1.00  0.00     0.120 C 
HETATM   10  C   UNK A   1      11.651  -1.039   4.807  1.00  0.00     0.122 C 
HETATM   11  C   UNK A   1       9.473   0.931   6.654  1.00  0.00     0.252 C 
HETATM   12  C   UNK A   1      11.263  -1.812   7.125  1.00  0.00     0.257 C 
HETATM   13  C   UNK A   1      10.965  -1.434   8.574  1.00  0.00     0.189 C 
HETATM   14  H   UNK A   1      10.501  -3.456   9.060  1.00  0.00     0.164 HD
HETATM   15  O   UNK A   2       7.287  -2.398   6.047  1.00  0.00    -0.271 OA
HETATM   16  N   UNK A   2       8.613  -0.071   6.249  1.00  0.00    -0.337 N 
HETATM   17  C   UNK A   2       7.170  -0.011   6.422  1.00  0.00     0.159 C 
HETATM   18  C   UNK A   2       6.672  -1.447   6.527  1.00  0.00     0.251 C 
HETATM   19  H   UNK A   2       9.004  -0.894   5.801  1.00  0.00     0.164 HD
HETATM   20  O   UNK A   0       8.356  -1.193   9.807  1.00  0.00    -0.272 OA
HETATM   21  C   UNK A   0       6.799  -3.411  10.638  1.00  0.00     0.112 C 
HETATM   22  C   UNK A   0       8.244  -3.594  10.131  1.00  0.00     0.114 C 
HETATM   23  C   UNK A   0       8.891  -2.290   9.678  1.00  0.00     0.233 C 
HETATM   24  O   UNK A   3       5.826  -4.811   8.227  1.00  0.00    -0.270 OA
HETATM   25  N   UNK A   3       5.460  -1.536   7.200  1.00  0.00    -0.336 N 
HETATM   26  N   UNK A   3       5.925  -2.916   9.569  1.00  0.00    -0.341 N 
HETATM   27  C   UNK A   3       4.752  -2.787   7.451  1.00  0.00     0.189 C 
HETATM   28  C   UNK A   3       5.582  -3.624   8.423  1.00  0.00     0.253 C 
HETATM   29  H   UNK A   3       5.024  -0.682   7.535  1.00  0.00     0.164 HD
HETATM   30  H   UNK A   3       5.619  -1.950   9.642  1.00  0.00     0.163 HD
ENDROOT
BRANCH  21  31
HETATM   31  C   UNK A   0       6.190  -4.607  11.349  1.00  0.00    -0.002 A 
HETATM   32  C   UNK A   0       4.888  -4.533  11.846  1.00  0.00    -0.003 A 
HETATM   33  C   UNK A   0       4.327  -5.631  12.497  1.00  0.00    -0.000 A 
HETATM   34  C   UNK A   0       5.068  -6.803  12.653  1.00  0.00    -0.000 A 
HETATM   35  C   UNK A   0       6.369  -6.877  12.155  1.00  0.00    -0.000 A 
HETATM   36  C   UNK A   0       6.929  -5.778  11.503  1.00  0.00    -0.003 A 
ENDBRANCH  21  31
BRANCH  27  37
HETATM   37  C   UNK A   3       4.383  -3.531   6.174  1.00  0.00     0.169 C 
BRANCH  37  38
HETATM   38  O   UNK A   3       3.544  -4.622   6.511  1.00  0.00    -0.380 OA
HETATM   39  H   UNK A   3       3.388  -4.592   7.470  1.00  0.00     0.211 HD
ENDBRANCH  37  38
ENDBRANCH  27  37
BRANCH  13  40
HETATM   40  C   UNK A   1      12.265  -1.297   9.353  1.00  0.00     0.169 C 
BRANCH  40  41
HETATM   41  O   UNK A   1      12.922  -2.552   9.368  1.00  0.00    -0.380 OA
HETATM   42  H   UNK A   1      13.738  -2.443   9.886  1.00  0.00     0.211 HD
ENDBRANCH  40  41
ENDBRANCH  13  40
BRANCH  17  43
HETATM   43  C   UNK A   2       6.500   0.702   5.257  1.00  0.00     0.032 C 
HETATM   44  C   UNK A   2       5.994   2.076   5.661  1.00  0.00     0.003 C 
ENDBRANCH  17  43
TORSDOF 6
ENDMDL
MODEL 8
REMARK VINA RESULT:    -7.087      2.871      6.807
REMARK INTER + INTRA:          -9.764
REMARK INTER:                  -8.827
REMARK INTRA:                  -0.937
REMARK UNBOUND:                -0.605
REMARK  6 active torsions:
REMARK  status: ('A' for Active; 'I' for Inactive)
REMARK    1  A    between atoms: O_5  and  C_15 
REMARK    2  A    between atoms: C_14  and  C_15 
REMARK    3  A    between atoms: C_20  and  C_21 
REMARK    4  A    between atoms: C_26  and  C_29 
REMARK    5  A    between atoms: O_36  and  C_41 
REMARK    6  A    between atoms: C_39  and  C_41 
ROOT
HETATM    1 CL   UNK A   1      15.015   1.949   8.393  1.00  0.00    -0.111 Cl
HETATM    2 CL   UNK A   1      12.666   1.974  10.677  1.00  0.00    -0.112 Cl
HETATM    3  O   UNK A   1      13.673  -0.756   7.504  1.00  0.00    -0.270 OA
HETATM    4  O   UNK A   1       8.837   1.977   7.286  1.00  0.00    -0.270 OA
HETATM    5  N   UNK A   1      11.106   1.813   7.652  1.00  0.00    -0.310 N 
HETATM    6  N   UNK A   1       8.873  -0.428   5.995  1.00  0.00    -0.337 N 
HETATM    7  C   UNK A   1      12.469   1.331   7.369  1.00  0.00     0.179 C 
HETATM    8  C   UNK A   1      13.353   2.416   8.007  1.00  0.00     0.126 C 
HETATM    9  C   UNK A   1      12.537   2.952   9.190  1.00  0.00     0.120 C 
HETATM   10  C   UNK A   1      11.113   2.891   8.643  1.00  0.00     0.122 C 
HETATM   11  C   UNK A   1      12.703  -0.098   7.886  1.00  0.00     0.252 C 
HETATM   12  C   UNK A   1       9.927   1.468   7.003  1.00  0.00     0.257 C 
HETATM   13  C   UNK A   1      10.031   0.449   5.872  1.00  0.00     0.189 C 
HETATM   14  H   UNK A   1       7.952   0.001   6.014  1.00  0.00     0.164 HD
HETATM   15  O   UNK A   2       9.537  -1.353  10.038  1.00  0.00    -0.271 OA
HETATM   16  N   UNK A   2      11.790  -0.538   8.825  1.00  0.00    -0.337 N 
HETATM   17  C   UNK A   2      11.814  -1.871   9.407  1.00  0.00     0.159 C 
HETATM   18  C   UNK A   2      10.382  -2.213   9.797  1.00  0.00     0.251 C 
HETATM   19  H   UNK A   2      11.065   0.102   9.133  1.00  0.00     0.164 HD
HETATM   20  O   UNK A   0      10.033  -2.437   6.125  1.00  0.00    -0.272 OA
HETATM   21  C   UNK A   0       7.696  -3.978   6.565  1.00  0.00     0.112 C 
HETATM   22  C   UNK A   0       7.613  -2.463   6.284  1.00  0.00     0.114 C 
HETATM   23  C   UNK A   0       8.980  -1.806   6.132  1.00  0.00     0.233 C 
HETATM   24  O   UNK A   3       6.759  -3.469   9.319  1.00  0.00    -0.270 OA
HETATM   25  N   UNK A   3      10.167  -3.584   9.861  1.00  0.00    -0.336 N 
HETATM   26  N   UNK A   3       8.376  -4.240   7.838  1.00  0.00    -0.341 N 
HETATM   27  C   UNK A   3       8.889  -4.198  10.207  1.00  0.00     0.189 C 
HETATM   28  C   UNK A   3       7.890  -3.892   9.092  1.00  0.00     0.253 C 
HETATM   29  H   UNK A   3      10.943  -4.210   9.668  1.00  0.00     0.164 HD
HETATM   30  H   UNK A   3       9.311  -4.633   7.781  1.00  0.00     0.163 HD
ENDROOT
BRANCH  21  31
HETATM   31  C   UNK A   0       6.387  -4.743   6.464  1.00  0.00    -0.002 A 
HETATM   32  C   UNK A   0       6.395  -6.094   6.115  1.00  0.00    -0.003 A 
HETATM   33  C   UNK A   0       5.195  -6.797   6.022  1.00  0.00    -0.000 A 
HETATM   34  C   UNK A   0       3.986  -6.149   6.277  1.00  0.00    -0.000 A 
HETATM   35  C   UNK A   0       3.978  -4.799   6.627  1.00  0.00    -0.000 A 
HETATM   36  C   UNK A   0       5.179  -4.096   6.719  1.00  0.00    -0.003 A 
ENDBRANCH  21  31
BRANCH  27  37
HETATM   37  C   UNK A   3       8.391  -3.803  11.591  1.00  0.00     0.169 C 
BRANCH  37  38
HETATM   38  O   UNK A   3       7.239  -4.569  11.895  1.00  0.00    -0.380 OA
HETATM   39  H   UNK A   3       6.699  -4.059  12.521  1.00  0.00     0.211 HD
ENDBRANCH  37  38
ENDBRANCH  27  37
BRANCH  13  40
HETATM   40  C   UNK A   1      10.026   1.162   4.527  1.00  0.00     0.169 C 
BRANCH  40  41
HETATM   41  O   UNK A   1       9.589   2.495   4.720  1.00  0.00    -0.380 OA
HETATM   42  H   UNK A   1       9.030   2.503   5.515  1.00  0.00     0.211 HD
ENDBRANCH  40  41
ENDBRANCH  13  40
BRANCH  17  43
HETATM   43  C   UNK A   2      12.727  -1.932  10.622  1.00  0.00     0.032 C 
HETATM   44  C   UNK A   2      13.702  -3.093  10.530  1.00  0.00     0.003 C 
ENDBRANCH  17  43
TORSDOF 6
ENDMDL
MODEL 9
REMARK VINA RESULT:    -7.053      1.978      4.960
REMARK INTER + INTRA:          -9.719
REMARK INTER:                  -9.114
REMARK INTRA:                  -0.605
REMARK UNBOUND:                -0.605
REMARK  6 active torsions:
REMARK  status: ('A' for Active; 'I' for Inactive)
REMARK    1  A    between atoms: O_5  and  C_15 
REMARK    2  A    between atoms: C_14  and  C_15 
REMARK    3  A    between atoms: C_20  and  C_21 
REMARK    4  A    between atoms: C_26  and  C_29 
REMARK    5  A    between atoms: O_36  and  C_41 
REMARK    6  A    between atoms: C_39  and  C_41 
ROOT
HETATM    1 CL   UNK A   1      14.345  -2.877  12.965  1.00  0.00    -0.111 Cl
HETATM    2 CL   UNK A   1      11.119  -2.335  13.138  1.00  0.00    -0.112 Cl
HETATM    3  O   UNK A   1      13.870  -2.773   9.856  1.00  0.00    -0.270 OA
HETATM    4  O   UNK A   1      11.345   2.119  10.632  1.00  0.00    -0.270 OA
HETATM    5  N   UNK A   1      12.459   0.230  11.340  1.00  0.00    -0.310 N 
HETATM    6  N   UNK A   1      12.076   1.583   8.057  1.00  0.00    -0.337 N 
HETATM    7  C   UNK A   1      13.472  -0.836  11.237  1.00  0.00     0.179 C 
HETATM    8  C   UNK A   1      13.662  -1.266  12.701  1.00  0.00     0.126 C 
HETATM    9  C   UNK A   1      12.303  -1.020  13.370  1.00  0.00     0.120 C 
HETATM   10  C   UNK A   1      11.828   0.245  12.661  1.00  0.00     0.122 C 
HETATM   11  C   UNK A   1      13.048  -1.954  10.271  1.00  0.00     0.252 C 
HETATM   12  C   UNK A   1      12.183   1.235  10.421  1.00  0.00     0.257 C 
HETATM   13  C   UNK A   1      12.999   1.239   9.131  1.00  0.00     0.189 C 
HETATM   14  H   UNK A   1      11.537   2.439   8.149  1.00  0.00     0.164 HD
HETATM   15  O   UNK A   2       9.260  -1.378   9.027  1.00  0.00    -0.271 OA
HETATM   16  N   UNK A   2      11.700  -1.987   9.968  1.00  0.00    -0.337 N 
HETATM   17  C   UNK A   2      11.107  -2.941   9.044  1.00  0.00     0.159 C 
HETATM   18  C   UNK A   2       9.870  -2.277   8.451  1.00  0.00     0.251 C 
HETATM   19  H   UNK A   2      11.087  -1.314  10.416  1.00  0.00     0.164 HD
HETATM   20  O   UNK A   0      12.460  -0.283   6.727  1.00  0.00    -0.272 OA
HETATM   21  C   UNK A   0      10.476   0.425   4.831  1.00  0.00     0.112 C 
HETATM   22  C   UNK A   0      10.823   1.356   6.010  1.00  0.00     0.114 C 
HETATM   23  C   UNK A   0      11.872   0.772   6.948  1.00  0.00     0.233 C 
HETATM   24  O   UNK A   3       7.826  -0.049   6.046  1.00  0.00    -0.270 OA
HETATM   25  N   UNK A   3       9.522  -2.818   7.220  1.00  0.00    -0.336 N 
HETATM   26  N   UNK A   3       9.887  -0.831   5.308  1.00  0.00    -0.341 N 
HETATM   27  C   UNK A   3       8.384  -2.373   6.422  1.00  0.00     0.189 C 
HETATM   28  C   UNK A   3       8.657  -0.948   5.944  1.00  0.00     0.253 C 
HETATM   29  H   UNK A   3      10.082  -3.577   6.844  1.00  0.00     0.164 HD
HETATM   30  H   UNK A   3      10.468  -1.662   5.237  1.00  0.00     0.163 HD
ENDROOT
BRANCH  21  31
HETATM   31  C   UNK A   0       9.646   1.043   3.719  1.00  0.00    -0.002 A 
HETATM   32  C   UNK A   0       8.678   2.002   4.022  1.00  0.00    -0.003 A 
HETATM   33  C   UNK A   0       7.916   2.570   3.003  1.00  0.00    -0.000 A 
HETATM   34  C   UNK A   0       8.121   2.180   1.679  1.00  0.00    -0.000 A 
HETATM   35  C   UNK A   0       9.089   1.222   1.376  1.00  0.00    -0.000 A 
HETATM   36  C   UNK A   0       9.850   0.654   2.396  1.00  0.00    -0.003 A 
ENDBRANCH  21  31
BRANCH  27  37
HETATM   37  C   UNK A   3       7.052  -2.524   7.145  1.00  0.00     0.169 C 
BRANCH  37  38
HETATM   38  O   UNK A   3       6.004  -2.354   6.207  1.00  0.00    -0.380 OA
HETATM   39  H   UNK A   3       5.164  -2.361   6.696  1.00  0.00     0.211 HD
ENDBRANCH  37  38
ENDBRANCH  27  37
BRANCH  13  40
HETATM   40  C   UNK A   1      14.119   2.265   9.228  1.00  0.00     0.169 C 
BRANCH  40  41
HETATM   41  O   UNK A   1      13.740   3.269  10.153  1.00  0.00    -0.380 OA
HETATM   42  H   UNK A   1      14.489   3.399  10.759  1.00  0.00     0.211 HD
ENDBRANCH  40  41
ENDBRANCH  13  40
BRANCH  17  43
HETATM   43  C   UNK A   2      10.732  -4.237   9.747  1.00  0.00     0.032 C 
HETATM   44  C   UNK A   2       9.414  -4.107  10.491  1.00  0.00     0.003 C 
ENDBRANCH  17  43
TORSDOF 6
ENDMDL
